7THI_ligand
     RDKit          3D

  9  8  0  0  1  0  0  0  0  0999 V2000
   37.0396   34.8162  116.0451 P   0  0  0  0  0  0  0  0  0  0  0  0
   38.1888   35.6314  115.0143 O   0  0  0  0  0  0  0  0  0  0  0  0
   36.8653   33.3867  115.5023 O   0  0  0  0  0  0  0  0  0  0  0  0
   37.6879   34.8403  117.4332 O   0  0  0  0  0  0  0  0  0  0  0  0
   35.7372   35.6354  115.9790 O   0  0  0  0  0  0  0  0  0  0  0  0
   37.8586   35.9622  113.6822 C   0  0  0  0  0  0  0  0  0  0  0  0
   38.9954   36.8365  113.1348 C   0  0  0  0  0  0  0  0  0  0  0  0
   38.9847   38.0550  113.4143 O   0  0  0  0  0  0  0  0  0  0  0  0
   39.8772   36.2765  112.4456 O   0  0  0  0  0  0  0  0  0  0  0  0
  1  2  1  0
  1  3  2  0
  1  4  1  0
  1  5  1  0
  2  6  1  0
  6  7  1  0
  7  8  2  0
  7  9  1  0
M  CHG  3   4  -1   5  -1   9  -1
M  END
$$$$
