7EN7_ligand
     RDKit          3D

 24 24  0  0  1  0  0  0  0  0999 V2000
    2.6894  -11.9593  -10.8208 C   0  0  1  0  0  0  0  0  0  0  0  0
    4.1713  -12.0157  -10.4081 C   0  0  1  0  0  0  0  0  0  0  0  0
    5.8054  -10.6753  -11.6570 C   0  0  2  0  0  0  0  0  0  0  0  0
    5.4092   -9.8958  -12.9250 C   0  0  0  0  0  0  0  0  0  0  0  0
    7.2864  -11.1332  -11.7458 C   0  0  0  0  0  0  0  0  0  0  0  0
    4.5101  -13.3716   -9.7453 C   0  0  2  0  0  0  0  0  0  0  0  0
    6.8093  -14.3809   -9.8342 C   0  0  0  0  0  0  0  0  0  0  0  0
    8.2337  -14.2618   -9.3047 C   0  0  0  0  0  0  0  0  0  0  0  0
    3.5157  -13.6311   -8.5925 C   0  0  2  0  0  0  0  0  0  0  0  0
    1.7687  -12.4250   -9.6664 C   0  0  1  0  0  0  0  0  0  0  0  0
    0.3214  -12.6333  -10.1319 C   0  0  0  0  0  0  0  0  0  0  0  0
    5.9266  -13.4835   -9.3667 N   0  0  0  0  0  0  0  0  0  0  0  0
    2.3354  -10.6552  -11.2477 O   0  0  0  0  0  0  0  0  0  0  0  0
    4.9664  -11.8359  -11.5855 O   0  0  0  0  0  0  0  0  0  0  0  0
    7.5687  -12.1654  -12.4008 O   0  0  0  0  0  0  0  0  0  0  0  0
    8.1377  -10.4255  -11.1607 O   0  0  0  0  0  0  0  0  0  0  0  0
    6.5310  -15.2639  -10.6456 O   0  0  0  0  0  0  0  0  0  0  0  0
    3.8222  -14.8455   -8.0304 O   0  0  0  0  0  0  0  0  0  0  0  0
    2.2128  -13.6619   -9.0995 O   0  0  0  0  0  0  0  0  0  0  0  0
    0.2901  -13.6041  -11.1549 O   0  0  0  0  0  0  0  0  0  0  0  0
   -1.4557  -12.5988  -12.8281 O   0  0  0  0  0  0  0  0  0  0  0  0
   -2.2510  -14.1545  -10.9591 O   0  0  0  0  0  0  0  0  0  0  0  0
   -0.9243  -15.1028  -12.9268 O   0  0  0  0  0  0  0  0  0  0  0  0
   -1.1860  -13.8844  -12.0298 P   0  0  0  0  0  0  0  0  0  0  0  0
  1  2  1  0
  1 10  1  0
  1 13  1  1
  2  6  1  0
  2 14  1  6
  3  4  1  6
  3  5  1  0
  3 14  1  0
  5 15  2  0
  5 16  1  0
  6  9  1  0
  6 12  1  1
  7  8  1  0
  7 12  1  0
  7 17  2  0
  9 18  1  6
  9 19  1  0
 10 11  1  6
 10 19  1  0
 11 20  1  0
 20 24  1  0
 21 24  1  0
 22 24  1  0
 23 24  2  0
M  CHG  3  16  -1  21  -1  22  -1
M  END
$$$$
