7QTA_ligand
     RDKit          3D

 17 18  0  0  1  0  0  0  0  0999 V2000
    8.0637    4.8453   -9.9686 N   0  0  0  0  0  0  0  0  0  0  0  0
    7.9622    5.7027  -11.0549 C   0  0  0  0  0  0  0  0  0  0  0  0
    9.0348    5.6423  -11.9043 N   0  0  0  0  0  0  0  0  0  0  0  0
   10.1934    4.9294  -11.7968 C   0  0  0  0  0  0  0  0  0  0  0  0
   10.2691    4.1475  -10.5802 C   0  0  0  0  0  0  0  0  0  0  0  0
    9.2223    4.1430   -9.7355 C   0  0  0  0  0  0  0  0  0  0  0  0
    7.0242    6.4624  -11.3116 O   0  0  0  0  0  0  0  0  0  0  0  0
   11.0829    4.9658  -12.6394 O   0  0  0  0  0  0  0  0  0  0  0  0
    6.9314    4.6920   -9.0663 C   0  0  1  0  0  0  0  0  0  0  0  0
    6.5595    3.2901   -8.5493 C   0  0  1  0  0  0  0  0  0  0  0  0
    6.9395    3.4043   -7.0666 C   0  0  1  0  0  0  0  0  0  0  0  0
    6.6630    4.8680   -6.7494 C   0  0  2  0  0  0  0  0  0  0  0  0
    5.1747    3.0515   -8.7941 O   0  0  0  0  0  0  0  0  0  0  0  0
    6.2247    2.5215   -6.2195 O   0  0  0  0  0  0  0  0  0  0  0  0
    7.1026    5.5165   -7.9419 O   0  0  0  0  0  0  0  0  0  0  0  0
    7.3733    5.4524   -5.5171 C   0  0  0  0  0  0  0  0  0  0  0  0
    6.8698    6.7434   -5.2446 O   0  0  0  0  0  0  0  0  0  0  0  0
  1  2  1  0
  1  6  1  0
  9  1  1  1
  2  3  1  0
  2  7  2  0
  3  4  1  0
  4  5  1  0
  4  8  2  0
  5  6  2  0
  9 10  1  0
  9 15  1  0
 10 11  1  0
 10 13  1  1
 11 12  1  0
 11 14  1  1
 12 15  1  0
 12 16  1  1
 16 17  1  0
M  END
$$$$
