1TOW_ligand
     RDKit          3D

 19 21  0  0  1  0  0  0  0  0999 V2000
   17.2324    7.2152    2.7892 O   0  0  0  0  0  0  0  0  0  0  0  0
   17.9262    6.2095    3.0530 C   0  0  0  0  0  0  0  0  0  0  0  0
   17.4462    5.0608    3.1643 O   0  0  0  0  0  0  0  0  0  0  0  0
   19.4488    6.4347    3.2127 C   0  0  0  0  0  0  0  0  0  0  0  0
   20.2172    5.3172    3.9749 C   0  0  0  0  0  0  0  0  0  0  0  0
   20.4521    3.9858    3.2178 C   0  0  0  0  0  0  0  0  0  0  0  0
   21.2823    4.1708    2.0283 N   0  0  0  0  0  0  0  0  0  0  0  0
   20.8199    4.3260    0.7259 C   0  0  0  0  0  0  0  0  0  0  0  0
   19.5203    4.3047    0.1971 C   0  0  0  0  0  0  0  0  0  0  0  0
   21.9531    4.5327   -0.1065 C   0  0  0  0  0  0  0  0  0  0  0  0
   21.7724    4.7461   -1.4831 C   0  0  0  0  0  0  0  0  0  0  0  0
   20.4799    4.7246   -2.0017 C   0  0  0  0  0  0  0  0  0  0  0  0
   19.3828    4.4977   -1.1771 C   0  0  0  0  0  0  0  0  0  0  0  0
   23.0975    4.4752    0.7061 C   0  0  0  0  0  0  0  0  0  0  0  0
   22.6666    4.2762    2.0447 C   0  0  0  0  0  0  0  0  0  0  0  0
   23.5800    4.2181    3.1079 C   0  0  0  0  0  0  0  0  0  0  0  0
   24.4699    4.5897    0.4314 C   0  0  0  0  0  0  0  0  0  0  0  0
   25.3722    4.5237    1.4900 C   0  0  0  0  0  0  0  0  0  0  0  0
   24.9331    4.3521    2.7992 C   0  0  0  0  0  0  0  0  0  0  0  0
  1  2  1  0
  2  3  2  0
  2  4  1  0
  4  5  1  0
  5  6  1  0
  6  7  1  0
  7  8  1  0
  7 15  1  0
  8  9  2  0
  8 10  1  0
  9 13  1  0
 10 11  2  0
 10 14  1  0
 11 12  1  0
 12 13  2  0
 14 15  2  0
 14 17  1  0
 15 16  1  0
 16 19  2  0
 17 18  2  0
 18 19  1  0
M  CHG  1   1  -1
M  END
$$$$
