7AKL_ligand
     RDKit          3D

 19 21  0  0  1  0  0  0  0  0999 V2000
   45.3092    3.6555   18.6215 C   0  0  0  0  0  0  0  0  0  0  0  0
   44.7555    4.1865   17.3258 C   0  0  0  0  0  0  0  0  0  0  0  0
   44.4181    3.5708   16.1234 C   0  0  0  0  0  0  0  0  0  0  0  0
   44.5343    2.1143   15.7395 C   0  0  0  0  0  0  0  0  0  0  0  0
   43.9171    4.6233   15.2955 C   0  0  0  0  0  0  0  0  0  0  0  0
   43.3956    4.7064   13.9999 C   0  0  0  0  0  0  0  0  0  0  0  0
   43.0019    5.9497   13.4631 C   0  0  0  0  0  0  0  0  0  0  0  0
   43.1578    7.0969   14.2645 C   0  0  0  0  0  0  0  0  0  0  0  0
   43.6401    7.0466   15.5704 C   0  0  0  0  0  0  0  0  0  0  0  0
   44.0156    5.7970   16.0594 C   0  0  0  0  0  0  0  0  0  0  0  0
   44.5143    5.5294   17.2973 O   0  0  0  0  0  0  0  0  0  0  0  0
   42.4009    6.0347   12.0846 C   0  0  0  0  0  0  0  0  0  0  0  0
   42.3081    4.9044   11.2491 C   0  0  0  0  0  0  0  0  0  0  0  0
   41.6705    4.9921   10.0163 C   0  0  0  0  0  0  0  0  0  0  0  0
   41.5214    3.8564    9.2261 N   0  0  0  0  0  0  0  0  0  0  0  0
   41.1547    6.1492    9.5494 N   0  0  0  0  0  0  0  0  0  0  0  0
   41.2499    7.2495   10.3274 C   0  0  0  0  0  0  0  0  0  0  0  0
   40.6809    8.4207    9.8420 N   0  0  0  0  0  0  0  0  0  0  0  0
   41.8567    7.2331   11.5816 C   0  0  0  0  0  0  0  0  0  0  0  0
  1  2  1  0
  2  3  2  0
  2 11  1  0
  3  4  1  0
  3  5  1  0
  5  6  2  0
  5 10  1  0
  6  7  1  0
  7  8  2  0
  7 12  1  0
  8  9  1  0
  9 10  2  0
 10 11  1  0
 12 13  2  0
 12 19  1  0
 13 14  1  0
 14 15  1  0
 14 16  2  0
 16 17  1  0
 17 18  1  0
 17 19  2  0
M  END
$$$$
