1L7F_ligand
     RDKit          3D

 23 23  0  0  1  0  0  0  0  0999 V2000
   24.9656   16.4216   63.3425 C   0  0  1  0  0  0  0  0  0  0  0  0
   24.3486   15.9125   62.0965 N   0  0  0  0  0  0  0  0  0  0  0  0
   23.8976   14.6833   61.8343 C   0  0  0  0  0  0  0  0  0  0  0  0
   23.7645   13.7385   62.7508 N   0  0  0  0  0  0  0  0  0  0  0  0
   23.5666   14.3735   60.5933 N   0  0  0  0  0  0  0  0  0  0  0  0
   26.0562   17.4848   63.0593 C   0  0  2  0  0  0  0  0  0  0  0  0
   27.4771   16.9851   62.6109 C   0  0  2  0  0  0  0  0  0  0  0  0
   28.5381   18.1328   62.4530 C   0  0  0  0  0  0  0  0  0  0  0  0
   28.1567   19.1978   61.3849 C   0  0  0  0  0  0  0  0  0  0  0  0
   28.9134   20.5304   61.5084 C   0  0  0  0  0  0  0  0  0  0  0  0
   29.9785   17.6006   62.2196 C   0  0  0  0  0  0  0  0  0  0  0  0
   30.5432   16.7286   63.3493 C   0  0  0  0  0  0  0  0  0  0  0  0
   27.4422   16.1296   61.4186 N   0  0  0  0  0  0  0  0  0  0  0  0
   27.4118   14.7863   61.4202 C   0  0  0  0  0  0  0  0  0  0  0  0
   27.3412   14.1067   60.0644 C   0  0  0  0  0  0  0  0  0  0  0  0
   27.4061   14.1015   62.4418 O   0  0  0  0  0  0  0  0  0  0  0  0
   26.0941   18.2841   64.3843 C   0  0  2  0  0  0  0  0  0  0  0  0
   27.0089   17.8115   65.3622 O   0  0  0  0  0  0  0  0  0  0  0  0
   24.6541   18.2648   64.9727 C   0  0  1  0  0  0  0  0  0  0  0  0
   23.9513   19.6254   65.1896 C   0  0  0  0  0  0  0  0  0  0  0  0
   22.7147   19.6119   65.3596 O   0  0  0  0  0  0  0  0  0  0  0  0
   24.6403   20.6701   65.2384 O   0  0  0  0  0  0  0  0  0  0  0  0
   23.9030   17.1813   64.1571 C   0  0  0  0  0  0  0  0  0  0  0  0
  1  2  1  6
  1  6  1  0
  1 23  1  0
  2  3  1  0
  3  4  2  0
  3  5  1  0
  6  7  1  1
  6 17  1  0
  7  8  1  0
  7 13  1  6
  8  9  1  0
  8 11  1  0
  9 10  1  0
 11 12  1  0
 13 14  1  0
 14 15  1  0
 14 16  2  0
 17 18  1  1
 17 19  1  0
 19 20  1  6
 19 23  1  0
 20 21  2  0
 20 22  1  0
M  CHG  2   4   1  22  -1
M  END
$$$$
