7WPW_ligand
     RDKit          3D

 17 16  0  0  1  0  0  0  0  0999 V2000
    5.9509  -16.5670   -1.6285 C   0  0  0  0  0  0  0  0  0  0  0  0
    4.9412  -15.9245   -1.2698 O   0  0  0  0  0  0  0  0  0  0  0  0
    7.0885  -16.3799   -1.1427 O   0  0  0  0  0  0  0  0  0  0  0  0
    5.7290  -17.6498   -2.7081 C   0  0  0  0  0  0  0  0  0  0  0  0
    7.0301  -18.1822   -3.3546 C   0  0  0  0  0  0  0  0  0  0  0  0
    8.0753  -19.7678   -5.0544 C   0  0  0  0  0  0  0  0  0  0  0  0
    7.8806  -20.7791   -6.2024 C   0  0  0  0  0  0  0  0  0  0  0  0
    6.7688  -19.2271   -4.4476 C   0  0  0  0  0  0  0  0  0  0  0  0
    7.0067  -22.0034   -5.8664 C   0  0  0  0  0  0  0  0  0  0  0  0
    7.5317  -22.8801   -4.7107 C   0  0  0  0  0  0  0  0  0  0  0  0
    6.4917  -23.9257   -4.2819 C   0  0  0  0  0  0  0  0  0  0  0  0
    6.9412  -24.9436   -3.2163 C   0  0  0  0  0  0  0  0  0  0  0  0
    7.4759  -24.3696   -1.8893 C   0  0  0  0  0  0  0  0  0  0  0  0
    6.6143  -23.2584   -1.2550 C   0  0  0  0  0  0  0  0  0  0  0  0
    6.9062  -23.0479    0.2449 C   0  0  0  0  0  0  0  0  0  0  0  0
    6.6368  -21.6199    0.7539 C   0  0  0  0  0  0  0  0  0  0  0  0
    7.7044  -20.6007    0.3209 C   0  0  0  0  0  0  0  0  0  0  0  0
  1  2  1  0
  1  3  2  0
  1  4  1  0
  4  5  1  0
  5  8  1  0
  6  7  1  0
  6  8  1  0
  7  9  1  0
  9 10  1  0
 10 11  1  0
 11 12  1  0
 12 13  1  0
 13 14  1  0
 14 15  1  0
 15 16  1  0
 16 17  1  0
M  CHG  1   2  -1
M  END
$$$$
