6VS3_ligand
     RDKit          3D

 36 41  0  0  1  0  0  0  0  0999 V2000
   54.5536  -24.1120   -9.8336 C   0  0  0  0  0  0  0  0  0  0  0  0
   56.2057  -22.7325  -11.2702 C   0  0  0  0  0  0  0  0  0  0  0  0
   57.2442  -21.1813  -12.6751 C   0  0  0  0  0  0  0  0  0  0  0  0
   55.8990  -18.4749  -11.6986 C   0  0  0  0  0  0  0  0  0  0  0  0
   55.3985  -17.2223  -11.3712 C   0  0  0  0  0  0  0  0  0  0  0  0
   55.8706  -16.0805  -12.0220 C   0  0  0  0  0  0  0  0  0  0  0  0
   54.7685  -14.5176  -10.2517 C   0  0  0  0  0  0  0  0  0  0  0  0
   54.2786  -14.2300  -12.7675 C   0  0  0  0  0  0  0  0  0  0  0  0
   51.5155  -24.7329  -10.5413 C   0  0  0  0  0  0  0  0  0  0  0  0
   51.3285  -24.5400   -9.0919 C   0  0  0  0  0  0  0  0  0  0  0  0
   52.6363  -24.6849   -8.2775 C   0  0  2  0  0  0  0  0  0  0  0  0
   52.4345  -24.4550   -6.7451 C   0  0  0  0  0  0  0  0  0  0  0  0
   53.7287  -24.5018   -5.9083 C   0  0  0  0  0  0  0  0  0  0  0  0
   53.8570  -25.9574   -5.4714 C   0  0  0  0  0  0  0  0  0  0  0  0
   52.4212  -26.3504   -5.1311 C   0  0  0  0  0  0  0  0  0  0  0  0
   51.5325  -25.5249   -6.0778 C   0  0  0  0  0  0  0  0  0  0  0  0
   54.5579  -21.9763   -9.3883 C   0  0  0  0  0  0  0  0  0  0  0  0
   55.1795  -22.9348  -10.2085 C   0  0  0  0  0  0  0  0  0  0  0  0
   56.8851  -18.6148  -12.6846 C   0  0  0  0  0  0  0  0  0  0  0  0
   55.3013  -14.6962  -11.6960 C   0  0  0  0  0  0  0  0  0  0  0  0
   54.3351  -13.0665   -9.9396 C   0  0  0  0  0  0  0  0  0  0  0  0
   53.1566  -13.3165  -12.2314 C   0  0  0  0  0  0  0  0  0  0  0  0
   56.8488  -16.2139  -13.0123 C   0  0  0  0  0  0  0  0  0  0  0  0
   57.3465  -17.4719  -13.3416 C   0  0  0  0  0  0  0  0  0  0  0  0
   57.7646  -23.3621  -12.9669 C   0  0  0  0  0  0  0  0  0  0  0  0
   56.9095  -23.7711  -11.9052 C   0  0  0  0  0  0  0  0  0  0  0  0
   57.0213  -25.1990  -11.7994 C   0  0  0  0  0  0  0  0  0  0  0  0
   57.8981  -25.5996  -12.7854 C   0  0  0  0  0  0  0  0  0  0  0  0
   51.6700  -24.8839  -11.6776 N   0  0  0  0  0  0  0  0  0  0  0  0
   53.6440  -23.7906   -8.8616 N   0  0  0  0  0  0  0  0  0  0  0  0
   53.6268  -22.4760   -8.6091 N   0  0  0  0  0  0  0  0  0  0  0  0
   56.3945  -21.4448  -11.6507 N   0  0  0  0  0  0  0  0  0  0  0  0
   57.4289  -19.8517  -13.0846 N   0  0  0  0  0  0  0  0  0  0  0  0
   53.7401  -12.3600  -11.1783 N   0  0  0  0  0  0  0  0  0  0  0  0
   57.9586  -22.1021  -13.3775 N   0  0  0  0  0  0  0  0  0  0  0  0
   58.3261  -24.5021  -13.4921 N   0  0  0  0  0  0  0  0  0  0  0  0
  1 18  2  0
  1 30  1  0
  2 18  1  0
  2 26  2  0
  2 32  1  0
  3 32  2  0
  3 33  1  0
  3 35  1  0
  4  5  2  0
  4 19  1  0
  5  6  1  0
  6 20  1  0
  6 23  2  0
  7 20  1  0
  7 21  1  0
  8 20  1  0
  8 22  1  0
  9 10  1  0
  9 29  3  0
 11 10  1  6
 11 12  1  0
 11 30  1  0
 12 13  1  0
 12 16  1  0
 13 14  1  0
 14 15  1  0
 15 16  1  0
 17 18  1  0
 17 31  2  0
 19 24  2  0
 19 33  1  0
 21 34  1  0
 22 34  1  0
 23 24  1  0
 25 26  1  0
 25 35  2  0
 25 36  1  0
 26 27  1  0
 27 28  2  0
 28 36  1  0
 30 31  1  0
M  CHG  1  34   1
M  END
$$$$
