7K0V_ligand
     RDKit          3D

 32 34  0  0  1  0  0  0  0  0999 V2000
    8.7194  -33.0827  -33.2685 C   0  0  0  0  0  0  0  0  0  0  0  0
    9.5982  -33.1656  -34.3498 C   0  0  0  0  0  0  0  0  0  0  0  0
   10.9023  -33.6361  -34.1410 C   0  0  0  0  0  0  0  0  0  0  0  0
   11.3127  -34.0661  -32.8737 C   0  0  0  0  0  0  0  0  0  0  0  0
   12.3506  -36.8327  -32.1351 C   0  0  0  0  0  0  0  0  0  0  0  0
   15.0700  -37.0413  -31.5627 C   0  0  0  0  0  0  0  0  0  0  0  0
   18.2874  -38.7775  -30.5945 C   0  0  0  0  0  0  0  0  0  0  0  0
    8.6073  -33.1905  -39.1705 C   0  0  0  0  0  0  0  0  0  0  0  0
    7.1530  -34.5589  -40.8977 C   0  0  0  0  0  0  0  0  0  0  0  0
   10.7856  -34.4505  -30.3861 C   0  0  0  0  0  0  0  0  0  0  0  0
   12.8799  -38.0557  -31.7333 C   0  0  0  0  0  0  0  0  0  0  0  0
   14.2323  -38.1570  -31.4297 C   0  0  0  0  0  0  0  0  0  0  0  0
   14.5397  -35.8116  -31.9899 C   0  0  0  0  0  0  0  0  0  0  0  0
   16.5502  -37.2191  -31.2502 C   0  0  0  0  0  0  0  0  0  0  0  0
   15.9512  -39.5211  -30.6994 C   0  0  0  0  0  0  0  0  0  0  0  0
   10.4048  -34.0199  -31.7966 C   0  0  0  0  0  0  0  0  0  0  0  0
    9.3186  -33.3838  -36.7833 C   0  0  0  0  0  0  0  0  0  0  0  0
    7.3462  -34.0376  -39.4408 C   0  0  0  0  0  0  0  0  0  0  0  0
    7.1873  -33.3992  -41.9225 C   0  0  0  0  0  0  0  0  0  0  0  0
    9.1213  -33.5086  -32.0055 C   0  0  0  0  0  0  0  0  0  0  0  0
    8.2477  -35.5895  -41.2594 C   0  0  0  0  0  0  0  0  0  0  0  0
    5.7758  -35.2553  -40.9904 C   0  0  0  0  0  0  0  0  0  0  0  0
   13.1680  -35.7058  -32.2708 C   0  0  0  0  0  0  0  0  0  0  0  0
   15.3371  -34.7265  -32.1533 F   0  0  0  0  0  0  0  0  0  0  0  0
    7.4737  -32.5856  -33.4346 F   0  0  0  0  0  0  0  0  0  0  0  0
   16.8653  -38.5030  -30.8526 N   0  0  0  0  0  0  0  0  0  0  0  0
   14.7059  -39.3928  -30.9716 N   0  0  0  0  0  0  0  0  0  0  0  0
    9.1271  -32.7576  -35.6088 N   0  0  0  0  0  0  0  0  0  0  0  0
    8.7166  -32.7256  -37.7876 N   0  0  0  0  0  0  0  0  0  0  0  0
   12.6457  -34.4849  -32.7346 N   0  0  0  0  0  0  0  0  0  0  0  0
   17.3860  -36.3171  -31.3490 O   0  0  0  0  0  0  0  0  0  0  0  0
    9.9399  -34.4360  -36.9269 O   0  0  0  0  0  0  0  0  0  0  0  0
  1  2  2  0
  1 20  1  0
  1 25  1  0
  2  3  1  0
  2 28  1  0
  3  4  2  0
  4 16  1  0
  4 30  1  0
  5 11  2  0
  5 23  1  0
  6 12  2  0
  6 13  1  0
  6 14  1  0
  7 26  1  0
  8 18  1  0
  8 29  1  0
  9 18  1  0
  9 19  1  0
  9 21  1  0
  9 22  1  0
 10 16  1  0
 11 12  1  0
 12 27  1  0
 13 23  2  0
 13 24  1  0
 14 26  1  0
 14 31  2  0
 15 26  1  0
 15 27  2  0
 16 20  2  0
 17 28  1  0
 17 29  1  0
 17 32  2  0
 23 30  1  0
M  END
$$$$
