7VYJ_ligand
     RDKit          3D

 26 28  0  0  1  0  0  0  0  0999 V2000
   37.6174  -75.7401    8.6523 N   0  0  0  0  0  0  0  0  0  0  0  0
   37.6453  -74.9191    9.7092 C   0  0  0  0  0  0  0  0  0  0  0  0
   37.4334  -73.5977    9.7584 N   0  0  0  0  0  0  0  0  0  0  0  0
   37.1271  -73.1007    8.5351 C   0  0  0  0  0  0  0  0  0  0  0  0
   37.0259  -73.8287    7.3632 C   0  0  0  0  0  0  0  0  0  0  0  0
   37.2974  -75.2136    7.4406 C   0  0  0  0  0  0  0  0  0  0  0  0
   37.2755  -76.0602    6.3356 N   0  0  0  0  0  0  0  0  0  0  0  0
   36.7100  -73.0369    6.3264 N   0  0  0  0  0  0  0  0  0  0  0  0
   36.6688  -71.8343    6.8447 C   0  0  0  0  0  0  0  0  0  0  0  0
   36.9015  -71.8045    8.1741 N   0  0  0  0  0  0  0  0  0  0  0  0
   32.8426  -66.8411    8.1132 P   0  0  1  0  0  0  0  0  0  0  0  0
   33.4923  -65.0773   10.0270 C   0  0  0  0  0  0  0  0  0  0  0  0
   37.0980  -70.6006    9.0708 C   0  0  1  0  0  0  0  0  0  0  0  0
   31.5086  -67.1495    8.7655 O   0  0  0  0  0  0  0  0  0  0  0  0
   34.2144  -65.6872   10.8000 O   0  0  0  0  0  0  0  0  0  0  0  0
   38.1463  -69.6015    8.5975 C   0  0  2  0  0  0  0  0  0  0  0  0
   39.4311  -70.0707    8.9474 O   0  0  0  0  0  0  0  0  0  0  0  0
   33.0399  -66.8112    6.6152 O   0  0  0  0  0  0  0  0  0  0  0  0
   32.6395  -64.0566   10.3685 N   0  0  0  0  0  0  0  0  0  0  0  0
   37.6846  -68.3342    9.3060 C   0  0  2  0  0  0  0  0  0  0  0  0
   38.2762  -68.1418   10.5806 O   0  0  0  0  0  0  0  0  0  0  0  0
   33.3833  -65.3282    8.7340 O   0  0  0  0  0  0  0  0  0  0  0  0
   36.1692  -68.5087    9.4160 C   0  0  2  0  0  0  0  0  0  0  0  0
   35.9127  -69.8992    9.2521 O   0  0  0  0  0  0  0  0  0  0  0  0
   35.3414  -67.7527    8.3791 C   0  0  0  0  0  0  0  0  0  0  0  0
   34.0067  -67.8699    8.8194 O   0  0  0  0  0  0  0  0  0  0  0  0
  1  2  2  0
  1  6  1  0
  2  3  1  0
  3  4  2  0
  4  5  1  0
  4 10  1  0
  5  6  2  0
  5  8  1  0
  6  7  1  0
  8  9  2  0
  9 10  1  0
 13 10  1  6
 11 14  1  6
 11 18  2  0
 11 22  1  0
 11 26  1  0
 12 15  2  0
 12 19  1  0
 12 22  1  0
 13 16  1  0
 13 24  1  0
 16 17  1  1
 16 20  1  0
 20 21  1  1
 20 23  1  0
 23 24  1  0
 23 25  1  6
 25 26  1  0
M  CHG  1  14  -1
M  END
$$$$
