7USH_ligand
     RDKit          3D

 26 30  0  0  1  0  0  0  0  0999 V2000
   17.4330   -9.6183    9.6762 C   0  0  0  0  0  0  0  0  0  0  0  0
   15.8091   -5.7106    6.6665 C   0  0  0  0  0  0  0  0  0  0  0  0
   16.5376   -3.3924    6.3812 C   0  0  0  0  0  0  0  0  0  0  0  0
   18.6874   -3.5518    7.7846 C   0  0  0  0  0  0  0  0  0  0  0  0
   21.1179   -2.6933    8.8763 C   0  0  0  0  0  0  0  0  0  0  0  0
   23.2583   -1.7574    8.5395 C   0  0  0  0  0  0  0  0  0  0  0  0
   19.5282   -2.7119    7.0437 C   0  0  0  0  0  0  0  0  0  0  0  0
   14.2029   -7.3674    6.0961 O   0  0  0  0  0  0  0  0  0  0  0  0
   15.2128   -7.0362    6.7138 C   0  0  0  0  0  0  0  0  0  0  0  0
   15.9475   -7.9418    7.6018 C   0  0  0  0  0  0  0  0  0  0  0  0
   17.0965   -7.5674    8.2305 C   0  0  0  0  0  0  0  0  0  0  0  0
   17.8509   -8.3194    9.1295 N   0  0  0  0  0  0  0  0  0  0  0  0
   18.8549   -7.7623   10.0539 C   0  0  0  0  0  0  0  0  0  0  0  0
   18.2241   -7.5639   11.4485 C   0  0  0  0  0  0  0  0  0  0  0  0
   17.7537   -8.8168   11.9359 O   0  0  0  0  0  0  0  0  0  0  0  0
   16.7979   -9.4175   11.0656 C   0  0  0  0  0  0  0  0  0  0  0  0
   17.6907   -6.3431    8.0756 O   0  0  0  0  0  0  0  0  0  0  0  0
   16.9939   -5.4216    7.3285 C   0  0  0  0  0  0  0  0  0  0  0  0
   15.1823   -4.3311    5.8355 S   0  0  0  0  0  0  0  0  0  0  0  0
   17.4376   -4.0985    7.1812 C   0  0  0  0  0  0  0  0  0  0  0  0
   19.0518   -3.9101    9.0909 C   0  0  0  0  0  0  0  0  0  0  0  0
   20.2631   -3.4868    9.6359 C   0  0  0  0  0  0  0  0  0  0  0  0
   22.2999   -2.2858    9.4607 O   0  0  0  0  0  0  0  0  0  0  0  0
   22.5782   -0.8096    7.5236 C   0  0  0  0  0  0  0  0  0  0  0  0
   21.5550   -1.5006    6.8008 O   0  0  0  0  0  0  0  0  0  0  0  0
   20.7338   -2.2758    7.5919 C   0  0  0  0  0  0  0  0  0  0  0  0
  1 12  1  0
  1 16  1  0
  2  9  1  0
  2 18  2  0
  2 19  1  0
  3 19  1  0
  3 20  2  0
  4  7  2  0
  4 20  1  0
  4 21  1  0
  5 22  1  0
  5 23  1  0
  5 26  2  0
  6 23  1  0
  6 24  1  0
  7 26  1  0
  8  9  2  0
  9 10  1  0
 10 11  2  0
 11 12  1  0
 11 17  1  0
 12 13  1  0
 13 14  1  0
 14 15  1  0
 15 16  1  0
 17 18  1  0
 18 20  1  0
 21 22  2  0
 24 25  1  0
 25 26  1  0
M  END
$$$$
