7EBG_ligand
     RDKit          3D

 14 15  0  0  1  0  0  0  0  0999 V2000
  -14.7800   10.1245   21.7897 C   0  0  0  0  0  0  0  0  0  0  0  0
  -15.0049    8.7939   22.1501 C   0  0  0  0  0  0  0  0  0  0  0  0
  -15.0017    8.4150   23.4920 C   0  0  0  0  0  0  0  0  0  0  0  0
  -14.5513   11.1019   22.7708 C   0  0  0  0  0  0  0  0  0  0  0  0
  -14.5898   10.7020   24.1124 C   0  0  0  0  0  0  0  0  0  0  0  0
  -14.7990    9.3823   24.4737 C   0  0  0  0  0  0  0  0  0  0  0  0
  -14.7630    9.2747   25.9712 C   0  0  0  0  0  0  0  0  0  0  0  0
  -14.4510   10.7210   26.3898 C   0  0  0  0  0  0  0  0  0  0  0  0
  -16.1286    8.8765   26.5819 C   0  0  0  0  0  0  0  0  0  0  0  0
  -13.6330    8.3674   26.5019 C   0  0  0  0  0  0  0  0  0  0  0  0
  -13.7714   12.8363   21.1490 C   0  0  0  0  0  0  0  0  0  0  0  0
  -14.2891   12.4441   22.4504 N   0  0  0  0  0  0  0  0  0  0  0  0
  -14.4157   11.4571   25.2646 N   0  0  0  0  0  0  0  0  0  0  0  0
  -14.2791   11.1153   27.5408 O   0  0  0  0  0  0  0  0  0  0  0  0
  1  2  2  0
  1  4  1  0
  2  3  1  0
  3  6  2  0
  4  5  2  0
  4 12  1  0
  5  6  1  0
  5 13  1  0
  6  7  1  0
  7  8  1  0
  7  9  1  0
  7 10  1  0
  8 13  1  0
  8 14  2  0
 11 12  1  0
M  END
$$$$
