7UP3_ligand
     RDKit          3D

 23 25  0  0  1  0  0  0  0  0999 V2000
   -5.6116   36.3963  -21.3892 C   0  0  0  0  0  0  0  0  0  0  0  0
   -5.0508   35.4675  -20.5083 C   0  0  0  0  0  0  0  0  0  0  0  0
   -5.4208   35.4430  -19.0686 C   0  0  0  0  0  0  0  0  0  0  0  0
   -6.2420   34.4439  -18.4911 C   0  0  0  0  0  0  0  0  0  0  0  0
   -4.0786   34.5814  -20.9780 C   0  0  0  0  0  0  0  0  0  0  0  0
   -4.8924   36.4377  -18.2402 C   0  0  0  0  0  0  0  0  0  0  0  0
   -4.6892   36.0294  -25.5832 O   0  0  0  0  0  0  0  0  0  0  0  0
   -6.9798   33.3751  -14.7196 O   0  0  0  0  0  0  0  0  0  0  0  0
   -7.5066   31.9895  -20.8148 N   0  0  0  0  0  0  0  0  0  0  0  0
   -3.7551   35.5498  -24.6378 C   0  0  0  0  0  0  0  0  0  0  0  0
   -8.6973   32.5084  -20.3511 N   0  0  0  0  0  0  0  0  0  0  0  0
   -8.3462   33.4159  -19.4392 N   0  0  0  0  0  0  0  0  0  0  0  0
   -6.3918   34.4461  -17.0860 C   0  0  0  0  0  0  0  0  0  0  0  0
   -7.2249   33.1487  -16.1478 S   0  0  0  0  0  0  0  0  0  0  0  0
   -6.8877   31.8619  -16.7516 O   0  0  0  0  0  0  0  0  0  0  0  0
   -8.9317   33.4133  -16.4173 N   0  0  0  0  0  0  0  0  0  0  0  0
   -6.9775   33.4741  -19.3557 C   0  0  0  0  0  0  0  0  0  0  0  0
   -6.4435   32.6323  -20.2024 N   0  0  0  0  0  0  0  0  0  0  0  0
   -5.8860   35.4238  -16.2960 N   0  0  0  0  0  0  0  0  0  0  0  0
   -5.1627   36.4016  -16.8777 C   0  0  0  0  0  0  0  0  0  0  0  0
   -3.6721   34.6193  -22.3072 C   0  0  0  0  0  0  0  0  0  0  0  0
   -4.2465   35.5319  -23.1930 C   0  0  0  0  0  0  0  0  0  0  0  0
   -5.2176   36.4268  -22.7271 C   0  0  0  0  0  0  0  0  0  0  0  0
  1  2  2  0
  1 23  1  0
  2  3  1  0
  2  5  1  0
  3  4  1  0
  3  6  2  0
  4 13  2  0
  4 17  1  0
  5 21  2  0
  6 20  1  0
  7 10  1  0
  8 14  2  0
  9 11  2  0
  9 18  1  0
 10 22  1  0
 11 12  1  0
 12 17  1  0
 13 14  1  0
 13 19  1  0
 14 15  2  0
 14 16  1  0
 17 18  2  0
 19 20  2  0
 21 22  1  0
 22 23  2  0
M  CHG  1  12  -1
M  END
$$$$
