7ES1_ligand
     RDKit          3D

 25 26  0  0  1  0  0  0  0  0999 V2000
   13.6175    8.8640   17.4170 N   0  0  0  0  0  0  0  0  0  0  0  0
   13.8051    9.9152   16.5368 C   0  0  0  0  0  0  0  0  0  0  0  0
   14.8986    9.7587   15.7216 N   0  0  0  0  0  0  0  0  0  0  0  0
   15.7845    8.7252   15.6302 C   0  0  0  0  0  0  0  0  0  0  0  0
   15.4453    7.6161   16.5021 C   0  0  0  0  0  0  0  0  0  0  0  0
   14.4013    7.7363   17.3436 C   0  0  0  0  0  0  0  0  0  0  0  0
   13.1054   10.9245   16.4430 O   0  0  0  0  0  0  0  0  0  0  0  0
   16.7751    8.7474   14.9027 O   0  0  0  0  0  0  0  0  0  0  0  0
   12.5572    8.9324   18.4119 C   0  0  1  0  0  0  0  0  0  0  0  0
   11.3036    8.1357   18.0843 C   0  0  2  0  0  0  0  0  0  0  0  0
   10.5537    8.8566   17.1245 O   0  0  0  0  0  0  0  0  0  0  0  0
   10.7030    7.9587   19.4768 C   0  0  1  0  0  0  0  0  0  0  0  0
   11.9065    7.9812   20.4339 C   0  0  2  0  0  0  0  0  0  0  0  0
   12.9959    8.4501   19.6468 O   0  0  0  0  0  0  0  0  0  0  0  0
    9.7388    8.9414   19.8067 O   0  0  0  0  0  0  0  0  0  0  0  0
   12.3048    6.6149   21.0164 C   0  0  0  0  0  0  0  0  0  0  0  0
   11.2701    6.1221   21.8552 O   0  0  0  0  0  0  0  0  0  0  0  0
   10.7262    4.5018   21.6105 P   0  0  2  0  0  0  0  0  0  0  0  0
   10.3833    4.3294   20.1493 O   0  0  0  0  0  0  0  0  0  0  0  0
    9.7460    4.1634   22.7129 O   0  0  0  0  0  0  0  0  0  0  0  0
   12.1880    3.6883   21.9059 O   0  0  0  0  0  0  0  0  0  0  0  0
   13.3817    3.6803   23.1623 P   0  0  0  0  0  0  0  0  0  0  0  0
   14.4723    4.6471   22.6794 O   0  0  0  0  0  0  0  0  0  0  0  0
   13.8800    2.2286   23.2573 O   0  0  0  0  0  0  0  0  0  0  0  0
   12.6798    4.1563   24.4437 O   0  0  0  0  0  0  0  0  0  0  0  0
  1  2  1  0
  1  6  1  0
  9  1  1  6
  2  3  1  0
  2  7  2  0
  3  4  1  0
  4  5  1  0
  4  8  2  0
  5  6  2  0
  9 10  1  0
  9 14  1  0
 10 11  1  6
 10 12  1  0
 12 13  1  0
 12 15  1  1
 13 14  1  0
 13 16  1  6
 16 17  1  0
 17 18  1  0
 18 19  2  0
 18 20  1  1
 18 21  1  0
 21 22  1  0
 22 23  2  0
 22 24  1  0
 22 25  1  0
M  CHG  3  20  -1  24  -1  25  -1
M  END
$$$$
