1R58_ligand
     RDKit          3D

 23 23  0  0  1  0  0  0  0  0999 V2000
   19.6602   33.3923   15.9627 C   0  0  0  0  0  0  0  0  0  0  0  0
   19.0943   34.6853   15.3707 C   0  0  0  0  0  0  0  0  0  0  0  0
   20.0405   33.5835   17.4357 C   0  0  0  0  0  0  0  0  0  0  0  0
   21.0228   32.7013   14.9869 S   0  0  0  0  0  0  0  0  0  0  0  0
   20.6553   30.9219   15.0024 C   0  0  0  0  0  0  0  0  0  0  0  0
   20.5898   30.2290   16.3721 C   0  0  0  0  0  0  0  0  0  0  0  0
   20.4383   28.6835   16.2922 C   0  0  1  0  0  0  0  0  0  0  0  0
   21.7493   28.1366   15.9568 N   0  0  0  0  0  0  0  0  0  0  0  0
   19.8807   28.0430   17.6047 C   0  0  2  0  0  0  0  0  0  0  0  0
   19.9777   26.6168   17.5749 O   0  0  0  0  0  0  0  0  0  0  0  0
   18.3958   28.4201   17.8079 C   0  0  0  0  0  0  0  0  0  0  0  0
   17.5028   27.7697   17.2550 O   0  0  0  0  0  0  0  0  0  0  0  0
   18.1808   29.5116   18.5752 N   0  0  0  0  0  0  0  0  0  0  0  0
   16.9157   30.0898   18.7154 N   0  0  0  0  0  0  0  0  0  0  0  0
   16.5151   30.9964   17.7889 C   0  0  0  0  0  0  0  0  0  0  0  0
   17.1203   31.2060   16.7341 O   0  0  0  0  0  0  0  0  0  0  0  0
   15.2119   31.7170   18.0604 C   0  0  0  0  0  0  0  0  0  0  0  0
   14.6351   31.7491   19.3419 C   0  0  0  0  0  0  0  0  0  0  0  0
   13.4251   32.4096   19.5588 C   0  0  0  0  0  0  0  0  0  0  0  0
   12.7732   33.0430   18.5020 C   0  0  0  0  0  0  0  0  0  0  0  0
   13.3328   33.0232   17.2262 C   0  0  0  0  0  0  0  0  0  0  0  0
   14.5482   32.3746   17.0111 C   0  0  0  0  0  0  0  0  0  0  0  0
   12.5218   33.7910   15.9100 Cl  0  0  0  0  0  0  0  0  0  0  0  0
  1  2  1  0
  1  3  1  0
  1  4  1  0
  4  5  1  0
  5  6  1  0
  6  7  1  0
  7  8  1  1
  7  9  1  0
  9 10  1  6
  9 11  1  0
 11 12  2  0
 11 13  1  0
 13 14  1  0
 14 15  1  0
 15 16  2  0
 15 17  1  0
 17 18  2  0
 17 22  1  0
 18 19  1  0
 19 20  2  0
 20 21  1  0
 21 22  2  0
 21 23  1  0
M  END
$$$$
