7ZXZ_ligand
     RDKit          3D

 33 36  0  0  1  0  0  0  0  0999 V2000
   49.9209  -21.7072    7.5971 N   0  0  0  0  0  0  0  0  0  0  0  0
   46.2816  -23.9111   13.1929 C   0  0  0  0  0  0  0  0  0  0  0  0
   44.8923  -24.0193   13.8650 C   0  0  0  0  0  0  0  0  0  0  0  0
   43.1021  -22.3489   14.1474 N   0  0  0  0  0  0  0  0  0  0  0  0
   44.3779  -22.6878   14.4264 C   0  0  0  0  0  0  0  0  0  0  0  0
   41.9672  -21.9044   16.8292 O   0  0  0  0  0  0  0  0  0  0  0  0
   48.9648  -21.2303    9.6517 C   0  0  2  0  0  0  0  0  0  0  0  0
   47.6572  -22.7486   11.3364 C   0  0  0  0  0  0  0  0  0  0  0  0
   46.2784  -22.9853   11.9631 C   0  0  0  0  0  0  0  0  0  0  0  0
   47.5996  -21.7682   10.1441 C   0  0  2  0  0  0  0  0  0  0  0  0
   47.4555  -21.2090    7.6581 C   0  0  0  0  0  0  0  0  0  0  0  0
   45.1307  -21.9684   15.0827 O   0  0  0  0  0  0  0  0  0  0  0  0
   48.8696  -20.8965    8.1659 C   0  0  2  0  0  0  0  0  0  0  0  0
   50.0489  -22.1953    9.6432 N   0  0  0  0  0  0  0  0  0  0  0  0
   46.8590  -22.5463    8.6914 S   0  0  0  0  0  0  0  0  0  0  0  0
   50.5796  -22.4987    8.4522 C   0  0  0  0  0  0  0  0  0  0  0  0
   51.6105  -23.1255    8.2475 O   0  0  0  0  0  0  0  0  0  0  0  0
   42.4112  -21.1053   14.5460 C   0  0  2  0  0  0  0  0  0  0  0  0
   43.1021  -19.8254   14.0436 C   0  0  0  0  0  0  0  0  0  0  0  0
   43.3954  -18.9566   15.2555 C   0  0  0  0  0  0  0  0  0  0  0  0
   44.0366  -17.9074   15.2257 O   0  0  0  0  0  0  0  0  0  0  0  0
   42.7246  -19.5791   16.4888 C   0  0  1  0  0  0  0  0  0  0  0  0
   42.3087  -20.9951   16.0715 C   0  0  0  0  0  0  0  0  0  0  0  0
   43.5173  -19.5655   17.8116 C   0  0  0  0  0  0  0  0  0  0  0  0
   42.8212  -19.8570   18.9900 C   0  0  0  0  0  0  0  0  0  0  0  0
   43.4576  -19.8611   20.2332 C   0  0  0  0  0  0  0  0  0  0  0  0
   42.6961  -20.2541   21.4932 C   0  0  0  0  0  0  0  0  0  0  0  0
   41.1037  -19.3986   21.6803 S   0  0  0  0  0  0  0  0  0  0  0  0
   44.8170  -19.5474   20.3000 C   0  0  0  0  0  0  0  0  0  0  0  0
   45.5422  -19.2690   19.1371 C   0  0  0  0  0  0  0  0  0  0  0  0
   44.8927  -19.2901   17.8983 C   0  0  0  0  0  0  0  0  0  0  0  0
   47.0248  -18.9330   19.2231 C   0  0  0  0  0  0  0  0  0  0  0  0
   48.0089  -20.2971   19.9050 S   0  0  0  0  0  0  0  0  0  0  0  0
  1 13  1  0
  1 16  1  0
  2  3  1  0
  2  9  1  0
  3  5  1  0
  4  5  1  0
 18  4  1  1
  5 12  2  0
  6 23  2  0
  7 10  1  0
  7 13  1  0
  7 14  1  6
  8  9  1  0
 10  8  1  1
 10 15  1  0
 13 11  1  6
 11 15  1  0
 14 16  1  0
 16 17  2  0
 18 19  1  0
 18 23  1  0
 19 20  1  0
 20 21  2  0
 20 22  1  0
 22 23  1  0
 22 24  1  1
 24 25  2  0
 24 31  1  0
 25 26  1  0
 26 27  1  0
 26 29  2  0
 27 28  1  0
 29 30  1  0
 30 31  2  0
 30 32  1  0
 32 33  1  0
M  END
$$$$
