7OZC_ligand
     RDKit          3D

 16 16  0  0  1  0  0  0  0  0999 V2000
   18.1897   -1.1309   20.0656 C   0  0  2  0  0  0  0  0  0  0  0  0
   18.3444   -2.6729   20.1039 C   0  0  1  0  0  0  0  0  0  0  0  0
   17.1402   -3.3531   19.4113 C   0  0  2  0  0  0  0  0  0  0  0  0
   15.7974   -2.7717   19.8807 C   0  0  2  0  0  0  0  0  0  0  0  0
   15.8346   -1.2338   19.7731 C   0  0  1  0  0  0  0  0  0  0  0  0
   14.5318   -0.5469   20.2036 C   0  0  0  0  0  0  0  0  0  0  0  0
   19.1637   -0.5960   20.8649 O   0  0  0  0  0  0  0  0  0  0  0  0
   19.5573   -3.0811   19.4916 O   0  0  0  0  0  0  0  0  0  0  0  0
   15.4666   -3.1724   21.1972 O   0  0  0  0  0  0  0  0  0  0  0  0
   16.9301   -0.7450   20.5550 O   0  0  0  0  0  0  0  0  0  0  0  0
   13.4515   -1.0744   19.4509 O   0  0  0  0  0  0  0  0  0  0  0  0
   12.0180   -0.2351   19.4993 S   0  0  0  0  0  0  0  0  0  0  0  0
   12.3439    1.0766   18.9330 O   0  0  0  0  0  0  0  0  0  0  0  0
   11.1075   -1.0325   18.6718 O   0  0  0  0  0  0  0  0  0  0  0  0
   11.6725   -0.2255   20.9219 O   0  0  0  0  0  0  0  0  0  0  0  0
   17.1438   -4.7615   19.5360 O   0  0  0  0  0  0  0  0  0  0  0  0
  1  2  1  0
  1  7  1  1
  1 10  1  0
  2  3  1  0
  2  8  1  6
  3  4  1  0
  3 16  1  1
  4  5  1  0
  4  9  1  1
  5  6  1  1
  5 10  1  0
  6 11  1  0
 11 12  1  0
 12 13  2  0
 12 14  2  0
 12 15  1  0
M  CHG  1  15  -1
M  END
$$$$
