8A1H_ligand
     RDKit          3D

 23 24  0  0  1  0  0  0  0  0999 V2000
  -69.9075   38.2559   -6.3727 C   0  0  0  0  0  0  0  0  0  0  0  0
  -69.1081   39.4859   -5.9585 C   0  0  0  0  0  0  0  0  0  0  0  0
  -69.6827   40.6463   -5.5008 C   0  0  0  0  0  0  0  0  0  0  0  0
  -71.1762   40.9226   -5.3601 C   0  0  0  0  0  0  0  0  0  0  0  0
  -68.9627   41.7610   -5.1557 N   0  0  0  0  0  0  0  0  0  0  0  0
  -67.6805   41.7113   -5.2222 C   0  0  0  0  0  0  0  0  0  0  0  0
  -66.9155   42.9269   -4.9267 C   0  0  0  0  0  0  0  0  0  0  0  0
  -67.4103   44.0234   -4.6761 O   0  0  0  0  0  0  0  0  0  0  0  0
  -65.5596   42.7559   -4.9809 N   0  0  0  0  0  0  0  0  0  0  0  0
  -64.8478   41.6265   -5.3041 C   0  0  0  0  0  0  0  0  0  0  0  0
  -63.6284   41.7449   -5.2146 O   0  0  0  0  0  0  0  0  0  0  0  0
  -65.5848   40.4816   -5.6931 N   0  0  0  0  0  0  0  0  0  0  0  0
  -66.8783   40.4813   -5.6476 C   0  0  0  0  0  0  0  0  0  0  0  0
  -67.6944   39.4018   -6.0634 N   0  0  0  0  0  0  0  0  0  0  0  0
  -67.0614   38.3434   -6.8834 C   0  0  0  0  0  0  0  0  0  0  0  0
  -66.7803   38.7819   -8.3462 C   0  0  2  0  0  0  0  0  0  0  0  0
  -67.9208   39.4050   -8.9181 O   0  0  0  0  0  0  0  0  0  0  0  0
  -66.3203   37.6446   -9.2950 C   0  0  2  0  0  0  0  0  0  0  0  0
  -67.3545   36.6856   -9.4345 O   0  0  0  0  0  0  0  0  0  0  0  0
  -65.0209   36.9140   -8.8730 C   0  0  2  0  0  0  0  0  0  0  0  0
  -64.0161   37.8376   -8.4924 O   0  0  0  0  0  0  0  0  0  0  0  0
  -64.4714   35.9894   -9.9849 C   0  0  0  0  0  0  0  0  0  0  0  0
  -63.3310   35.2736   -9.5620 O   0  0  0  0  0  0  0  0  0  0  0  0
  1  2  1  0
  2  3  2  0
  2 14  1  0
  3  4  1  0
  3  5  1  0
  5  6  2  0
  6  7  1  0
  6 13  1  0
  7  8  2  0
  7  9  1  0
  9 10  1  0
 10 11  2  0
 10 12  1  0
 12 13  2  0
 13 14  1  0
 14 15  1  0
 15 16  1  0
 16 17  1  6
 16 18  1  0
 18 19  1  1
 18 20  1  0
 20 21  1  6
 20 22  1  0
 22 23  1  0
M  END
$$$$
