7DKT_ligand
     RDKit          3D

 12 12  0  0  1  0  0  0  0  0999 V2000
   57.2188   66.9821   61.8996 C   0  0  1  0  0  0  0  0  0  0  0  0
   56.4531   66.7953   60.5764 C   0  0  1  0  0  0  0  0  0  0  0  0
   57.4172   66.3406   59.4611 C   0  0  2  0  0  0  0  0  0  0  0  0
   58.6334   67.2769   59.3744 C   0  0  1  0  0  0  0  0  0  0  0  0
   59.2774   67.5415   60.7531 C   0  0  1  0  0  0  0  0  0  0  0  0
   60.3349   68.6523   60.6611 C   0  0  0  0  0  0  0  0  0  0  0  0
   57.7129   65.8231   62.3436 F   0  0  0  0  0  0  0  0  0  0  0  0
   55.3367   65.9419   60.7349 O   0  0  0  0  0  0  0  0  0  0  0  0
   56.7885   66.3011   58.2001 O   0  0  0  0  0  0  0  0  0  0  0  0
   59.5842   66.7496   58.4727 O   0  0  0  0  0  0  0  0  0  0  0  0
   58.2901   67.9091   61.7243 O   0  0  0  0  0  0  0  0  0  0  0  0
   61.0553   68.7359   61.8587 O   0  0  0  0  0  0  0  0  0  0  0  0
  1  2  1  0
  1  7  1  6
  1 11  1  0
  2  3  1  0
  2  8  1  1
  3  4  1  0
  3  9  1  6
  4  5  1  0
  4 10  1  6
  5  6  1  6
  5 11  1  0
  6 12  1  0
M  END
$$$$
