6VTA_ligand
     RDKit          3D

 40 42  0  0  1  0  0  0  0  0999 V2000
  118.3687   13.8258    3.0605 C   0  0  1  0  0  0  0  0  0  0  0  0
  118.4893   13.3294    4.5053 C   0  0  1  0  0  0  0  0  0  0  0  0
  117.9660   14.3858    5.4905 C   0  0  2  0  0  0  0  0  0  0  0  0
  118.6230   15.7482    5.2456 C   0  0  1  0  0  0  0  0  0  0  0  0
  118.4963   16.1323    3.7565 C   0  0  1  0  0  0  0  0  0  0  0  0
  119.2465   17.4473    3.4497 C   0  0  0  0  0  0  0  0  0  0  0  0
  118.0160   16.7316    6.0614 O   0  0  0  0  0  0  0  0  0  0  0  0
  117.0087   13.8183    2.7260 O   0  0  0  0  0  0  0  0  0  0  0  0
  118.9830   15.0848    2.9013 O   0  0  0  0  0  0  0  0  0  0  0  0
  119.0267   17.8843    1.9989 N   0  0  0  0  0  0  0  0  0  0  0  0
  114.7011   13.9646   -0.9238 C   0  0  2  0  0  0  0  0  0  0  0  0
  113.9791   14.3755   -2.1324 N   0  0  0  0  0  0  0  0  0  0  0  0
  114.3185   14.8744    0.2663 C   0  0  0  0  0  0  0  0  0  0  0  0
  115.0293   14.4646    1.5753 C   0  0  2  0  0  0  0  0  0  0  0  0
  114.6883   15.4794    2.6814 N   0  0  0  0  0  0  0  0  0  0  0  0
  116.5697   14.2954    1.4515 C   0  0  2  0  0  0  0  0  0  0  0  0
  116.9097   13.3695    0.2466 C   0  0  2  0  0  0  0  0  0  0  0  0
  118.3008   13.2308    0.0464 O   0  0  0  0  0  0  0  0  0  0  0  0
  116.2564   13.8978   -1.0597 C   0  0  1  0  0  0  0  0  0  0  0  0
  116.6717   13.0498   -2.1405 O   0  0  0  0  0  0  0  0  0  0  0  0
  116.9342   13.6667   -3.3755 C   0  0  2  0  0  0  0  0  0  0  0  0
  116.9883   12.5861   -4.4694 C   0  0  2  0  0  0  0  0  0  0  0  0
  115.8033   11.8100   -4.4614 O   0  0  0  0  0  0  0  0  0  0  0  0
  118.2864   11.7525   -4.3572 C   0  0  1  0  0  0  0  0  0  0  0  0
  118.3891   10.8147   -5.5789 N   0  0  0  0  0  0  0  0  0  0  0  0
  119.5249   12.6704   -4.3435 C   0  0  2  0  0  0  0  0  0  0  0  0
  120.7381   11.9564   -4.1835 O   0  0  0  0  0  0  0  0  0  0  0  0
  119.3600   13.7535   -3.2567 C   0  0  2  0  0  0  0  0  0  0  0  0
  118.1080   14.4517   -3.3592 O   0  0  0  0  0  0  0  0  0  0  0  0
  120.5139   14.7838   -3.2483 C   0  0  0  0  0  0  0  0  0  0  0  0
  120.6780   15.4243   -4.4991 O   0  0  0  0  0  0  0  0  0  0  0  0
  117.8075   12.1032    4.6757 O   0  0  0  0  0  0  0  0  0  0  0  0
  118.1165   13.9672    6.8312 O   0  0  0  0  0  0  0  0  0  0  0  0
  113.5886   13.9638   -7.9569 N   0  0  0  0  0  0  0  0  0  0  0  0
  113.2391   13.5833   -2.9357 C   0  0  0  0  0  0  0  0  0  0  0  0
  113.0944   12.3789   -2.7277 O   0  0  0  0  0  0  0  0  0  0  0  0
  112.5629   14.1984   -4.1843 C   0  0  2  0  0  0  0  0  0  0  0  0
  113.3565   13.8426   -5.4621 C   0  0  0  0  0  0  0  0  0  0  0  0
  112.6795   14.2914   -6.7683 C   0  0  0  0  0  0  0  0  0  0  0  0
  112.4645   15.6113   -4.0676 O   0  0  0  0  0  0  0  0  0  0  0  0
  1  2  1  0
  1  8  1  1
  1  9  1  0
  2  3  1  0
  2 32  1  6
  3  4  1  0
  3 33  1  1
  4  5  1  0
  4  7  1  1
  5  6  1  1
  5  9  1  0
  6 10  1  0
 16  8  1  1
 11 12  1  6
 11 13  1  0
 11 19  1  0
 12 35  1  0
 13 14  1  0
 14 15  1  1
 14 16  1  0
 16 17  1  0
 17 18  1  6
 17 19  1  0
 19 20  1  6
 21 20  1  1
 21 22  1  0
 21 29  1  0
 22 23  1  1
 22 24  1  0
 24 25  1  6
 24 26  1  0
 26 27  1  1
 26 28  1  0
 28 29  1  0
 28 30  1  6
 30 31  1  0
 34 39  1  0
 35 36  2  0
 35 37  1  0
 37 38  1  0
 37 40  1  1
 38 39  1  0
M  CHG  4  10   1  15   1  25   1  34   1
M  END
$$$$
