8FO5_ligand
     RDKit          3D

 17 18  0  0  1  0  0  0  0  0999 V2000
   33.6526  -33.1776   44.2488 O   0  0  0  0  0  0  0  0  0  0  0  0
   36.3496  -26.9601   43.6661 O   0  0  0  0  0  0  0  0  0  0  0  0
   38.6523  -28.7218   42.8770 C   0  0  0  0  0  0  0  0  0  0  0  0
   39.8244  -29.4092   42.5784 C   0  0  0  0  0  0  0  0  0  0  0  0
   40.3370  -30.3401   43.4768 C   0  0  0  0  0  0  0  0  0  0  0  0
   39.6815  -30.5991   44.6765 C   0  0  0  0  0  0  0  0  0  0  0  0
   38.4910  -29.9396   44.9681 C   0  0  0  0  0  0  0  0  0  0  0  0
   34.9410  -29.2283   42.2837 C   0  0  0  0  0  0  0  0  0  0  0  0
   34.2553  -30.3824   41.9443 C   0  0  0  0  0  0  0  0  0  0  0  0
   34.2159  -31.2085   43.0793 C   0  0  0  0  0  0  0  0  0  0  0  0
   33.6295  -32.5391   43.1980 C   0  0  0  0  0  0  0  0  0  0  0  0
   32.9459  -33.1542   41.9799 C   0  0  0  0  0  0  0  0  0  0  0  0
   34.8619  -30.4946   44.0856 C   0  0  0  0  0  0  0  0  0  0  0  0
   36.3997  -28.2368   44.3905 S   0  0  0  0  0  0  0  0  0  0  0  0
   36.1207  -28.3231   45.8283 O   0  0  0  0  0  0  0  0  0  0  0  0
   35.2570  -29.2644   43.6181 N   0  0  0  0  0  0  0  0  0  0  0  0
   37.9755  -29.0088   44.0635 C   0  0  0  0  0  0  0  0  0  0  0  0
  1 11  2  0
  2 14  2  0
  3  4  2  0
  3 17  1  0
  4  5  1  0
  5  6  2  0
  6  7  1  0
  7 17  2  0
  8  9  2  0
  8 16  1  0
  9 10  1  0
 10 11  1  0
 10 13  2  0
 11 12  1  0
 13 16  1  0
 14 15  2  0
 14 16  1  0
 14 17  1  0
M  END
$$$$
