7AVI_ligand
     RDKit          3D

 27 29  0  0  1  0  0  0  0  0999 V2000
  -40.6125   -8.6887  -90.4714 C   0  0  0  0  0  0  0  0  0  0  0  0
  -39.5369   -9.0107  -89.6400 C   0  0  0  0  0  0  0  0  0  0  0  0
  -39.7881   -9.8350  -88.5371 C   0  0  0  0  0  0  0  0  0  0  0  0
  -41.1001  -10.3020  -88.3405 C   0  0  0  0  0  0  0  0  0  0  0  0
  -41.4370  -11.2463  -87.2114 C   0  0  0  0  0  0  0  0  0  0  0  0
  -40.5249  -12.3415  -85.1569 C   0  0  1  0  0  0  0  0  0  0  0  0
  -39.6621  -11.9314  -83.9427 C   0  0  0  0  0  0  0  0  0  0  0  0
  -38.7241  -13.8278  -86.1485 C   0  0  0  0  0  0  0  0  0  0  0  0
  -39.2552  -15.9537  -87.1459 C   0  0  0  0  0  0  0  0  0  0  0  0
  -36.9843   -8.3408  -89.7383 C   0  0  0  0  0  0  0  0  0  0  0  0
  -35.9375   -8.2369  -90.8661 C   0  0  0  0  0  0  0  0  0  0  0  0
  -40.1909   -7.8907  -91.4884 O   0  0  0  0  0  0  0  0  0  0  0  0
  -38.8110   -7.6919  -91.3188 N   0  0  0  0  0  0  0  0  0  0  0  0
  -38.4230   -8.3541  -90.2424 C   0  0  0  0  0  0  0  0  0  0  0  0
  -41.8762   -9.0889  -90.3305 N   0  0  0  0  0  0  0  0  0  0  0  0
  -42.0898   -9.9008  -89.2586 C   0  0  0  0  0  0  0  0  0  0  0  0
  -40.5678  -11.2916  -86.1784 N   0  0  0  0  0  0  0  0  0  0  0  0
  -42.4437  -11.9547  -87.2693 O   0  0  0  0  0  0  0  0  0  0  0  0
  -40.0641  -13.6555  -85.7850 C   0  0  0  0  0  0  0  0  0  0  0  0
  -38.3203  -14.9749  -86.8255 C   0  0  0  0  0  0  0  0  0  0  0  0
  -40.9887  -14.6707  -86.0560 C   0  0  0  0  0  0  0  0  0  0  0  0
  -40.5847  -15.8163  -86.7456 C   0  0  0  0  0  0  0  0  0  0  0  0
  -36.7877   -7.2296  -88.6926 C   0  0  0  0  0  0  0  0  0  0  0  0
  -41.7407  -17.1184  -87.1305 S   0  0  0  0  0  0  0  0  0  0  0  0
  -41.7794  -17.9908  -85.9542 O   0  0  0  0  0  0  0  0  0  0  0  0
  -41.3658  -17.6447  -88.4481 O   0  0  0  0  0  0  0  0  0  0  0  0
  -43.3082  -16.3562  -87.3014 N   0  0  0  0  0  0  0  0  0  0  0  0
  1  2  1  0
  1 12  1  0
  1 15  2  0
  2  3  2  0
  2 14  1  0
  3  4  1  0
  4  5  1  0
  4 16  2  0
  5 17  1  0
  5 18  2  0
  6  7  1  1
  6 17  1  0
  6 19  1  0
  8 19  2  0
  8 20  1  0
  9 20  2  0
  9 22  1  0
 10 11  1  0
 10 14  1  0
 10 23  1  0
 12 13  1  0
 13 14  2  0
 15 16  1  0
 19 21  1  0
 21 22  2  0
 22 24  1  0
 24 25  2  0
 24 26  2  0
 24 27  1  0
M  END
$$$$
