6YDY_ligand
     RDKit          3D

 28 30  0  0  1  0  0  0  0  0999 V2000
   19.2268    2.3599    0.0405 N   0  0  0  0  0  0  0  0  0  0  0  0
   19.7734    1.0825    0.6697 C   0  0  0  0  0  0  0  0  0  0  0  0
   26.2421    3.0403    3.7456 O   0  0  0  0  0  0  0  0  0  0  0  0
   20.8221    1.3476    1.7288 C   0  0  0  0  0  0  0  0  0  0  0  0
   29.4709    1.8444    2.3190 C   0  0  0  0  0  0  0  0  0  0  0  0
   27.4029    1.6730    0.8927 C   0  0  0  0  0  0  0  0  0  0  0  0
   28.1598    2.3488   -0.2892 C   0  0  1  0  0  0  0  0  0  0  0  0
   28.4483    1.4009   -1.4844 C   0  0  0  0  0  0  0  0  0  0  0  0
   29.2996    0.1813   -1.1613 C   0  0  0  0  0  0  0  0  0  0  0  0
   30.6754    0.3197   -0.8811 C   0  0  0  0  0  0  0  0  0  0  0  0
   31.4188   -0.7877   -0.4938 C   0  0  0  0  0  0  0  0  0  0  0  0
   30.8112   -2.0308   -0.3726 C   0  0  0  0  0  0  0  0  0  0  0  0
   29.4569   -2.1826   -0.6330 C   0  0  0  0  0  0  0  0  0  0  0  0
   28.6998   -1.0851   -1.0161 C   0  0  0  0  0  0  0  0  0  0  0  0
   22.1122    1.7036    1.3409 C   0  0  0  0  0  0  0  0  0  0  0  0
   21.5186    1.3156    4.0355 C   0  0  0  0  0  0  0  0  0  0  0  0
   20.5206    1.1751    3.0797 C   0  0  0  0  0  0  0  0  0  0  0  0
   23.1108    1.8365    2.2952 C   0  0  0  0  0  0  0  0  0  0  0  0
   22.8226    1.6217    3.6462 C   0  0  0  0  0  0  0  0  0  0  0  0
   23.9183    1.6300    4.7039 C   0  0  0  0  0  0  0  0  0  0  0  0
   26.2246    1.8094    3.7996 C   0  0  0  0  0  0  0  0  0  0  0  0
   27.4309    0.9977    3.3001 C   0  0  2  0  0  0  0  0  0  0  0  0
   28.5654    0.9912    4.3411 C   0  0  0  0  0  0  0  0  0  0  0  0
   29.8439    1.0001    3.5261 C   0  0  0  0  0  0  0  0  0  0  0  0
   25.1967    1.0838    4.2579 N   0  0  0  0  0  0  0  0  0  0  0  0
   28.0589    1.5424    2.0759 N   0  0  0  0  0  0  0  0  0  0  0  0
   27.2905    3.5027   -0.7110 N   0  0  0  0  0  0  0  0  0  0  0  0
   26.2456    1.2783    0.7185 O   0  0  0  0  0  0  0  0  0  0  0  0
  1  2  1  0
  2  4  1  0
  3 21  2  0
  4 15  2  0
  4 17  1  0
  5 24  1  0
  5 26  1  0
  6  7  1  0
  6 26  1  0
  6 28  2  0
  7  8  1  0
  7 27  1  6
  8  9  1  0
  9 10  2  0
  9 14  1  0
 10 11  1  0
 11 12  2  0
 12 13  1  0
 13 14  2  0
 15 18  1  0
 16 17  2  0
 16 19  1  0
 18 19  2  0
 19 20  1  0
 20 25  1  0
 22 21  1  1
 21 25  1  0
 22 23  1  0
 22 26  1  0
 23 24  1  0
M  CHG  2   1   1  27   1
M  END
$$$$
