7T0D_ligand
     RDKit          3D

 24 23  0  0  1  0  0  0  0  0999 V2000
   35.8472  -30.8558    0.9018 C   0  0  0  0  0  0  0  0  0  0  0  0
   36.6883  -31.7882    0.2298 O   0  0  0  0  0  0  0  0  0  0  0  0
   34.4065  -31.0078    0.4464 C   0  0  0  0  0  0  0  0  0  0  0  0
   33.4484  -31.7673    1.0244 C   0  0  0  0  0  0  0  0  0  0  0  0
   33.7086  -32.6896    2.2080 C   0  0  0  0  0  0  0  0  0  0  0  0
   31.9993  -31.8486    0.5517 C   0  0  0  0  0  0  0  0  0  0  0  0
   31.5336  -31.1335   -0.7294 C   0  0  0  0  0  0  0  0  0  0  0  0
   30.2578  -31.6772   -1.3505 C   0  0  0  0  0  0  0  0  0  0  0  0
   29.8403  -31.5713   -2.6334 C   0  0  0  0  0  0  0  0  0  0  0  0
   30.6055  -30.8360   -3.7493 C   0  0  0  0  0  0  0  0  0  0  0  0
   28.4848  -32.1344   -3.0196 C   0  0  0  0  0  0  0  0  0  0  0  0
   28.4151  -33.1130   -4.1754 C   0  0  0  0  0  0  0  0  0  0  0  0
   26.9913  -33.2180   -4.6500 C   0  0  0  0  0  0  0  0  0  0  0  0
   26.0586  -34.0731   -4.2190 C   0  0  0  0  0  0  0  0  0  0  0  0
   26.3033  -35.0281   -3.0683 C   0  0  0  0  0  0  0  0  0  0  0  0
   24.6552  -34.0206   -4.7901 C   0  0  0  0  0  0  0  0  0  0  0  0
   38.3347  -31.3680   -0.1359 P   0  0  2  0  0  0  0  0  0  0  0  0
   39.0863  -32.6567   -0.3726 O   0  0  0  0  0  0  0  0  0  0  0  0
   38.8095  -30.3036    0.8298 O   0  0  0  0  0  0  0  0  0  0  0  0
   38.1237  -30.6519   -1.6514 O   0  0  0  0  0  0  0  0  0  0  0  0
   37.7192  -29.0381   -2.0558 P   0  0  0  0  0  0  0  0  0  0  0  0
   38.9119  -28.1977   -1.5576 O   0  0  0  0  0  0  0  0  0  0  0  0
   36.3961  -28.8140   -1.3123 O   0  0  0  0  0  0  0  0  0  0  0  0
   37.5547  -28.9856   -3.5788 O   0  0  0  0  0  0  0  0  0  0  0  0
  1  2  1  0
  1  3  1  0
  2 17  1  0
  3  4  2  0
  4  5  1  0
  4  6  1  0
  6  7  1  0
  7  8  1  0
  8  9  2  0
  9 10  1  0
  9 11  1  0
 11 12  1  0
 12 13  1  0
 13 14  2  0
 14 15  1  0
 14 16  1  0
 17 18  2  0
 17 19  1  1
 17 20  1  0
 20 21  1  0
 21 22  2  0
 21 23  1  0
 21 24  1  0
M  CHG  3  19  -1  23  -1  24  -1
M  END
$$$$
