1KZK_ligand
     RDKit          3D

 41 44  0  0  1  0  0  0  0  0999 V2000
   23.8621    3.4141   20.8917 C   0  0  0  0  0  0  0  0  0  0  0  0
   22.4870    3.4258   20.6939 C   0  0  0  0  0  0  0  0  0  0  0  0
   21.8786    2.3949   19.9867 C   0  0  0  0  0  0  0  0  0  0  0  0
   22.6349    1.3366   19.4573 C   0  0  0  0  0  0  0  0  0  0  0  0
   24.0396    1.3426   19.6289 C   0  0  0  0  0  0  0  0  0  0  0  0
   24.6355    2.3825   20.3648 C   0  0  0  0  0  0  0  0  0  0  0  0
   24.9478    0.2764   19.0049 C   0  0  0  0  0  0  0  0  0  0  0  0
   21.9130    0.2144   18.7525 C   0  0  0  0  0  0  0  0  0  0  0  0
   25.9863    2.4068   20.5893 O   0  0  0  0  0  0  0  0  0  0  0  0
   22.1621   -0.9644   19.0121 O   0  0  0  0  0  0  0  0  0  0  0  0
   20.3392   -1.9358   15.0533 C   0  0  0  0  0  0  0  0  0  0  0  0
   20.9940    0.5975   17.8491 N   0  0  0  0  0  0  0  0  0  0  0  0
   19.3354   -1.9517   14.3361 O   0  0  0  0  0  0  0  0  0  0  0  0
   20.7927   -0.5979   15.6848 C   0  0  2  0  0  0  0  0  0  0  0  0
   18.1336    0.6734   18.3642 C   0  0  0  0  0  0  0  0  0  0  0  0
   18.6782    0.2538   17.0028 C   0  0  0  0  0  0  0  0  0  0  0  0
   17.3904    1.4319   20.9282 C   0  0  0  0  0  0  0  0  0  0  0  0
   20.1329   -0.2991   17.0661 C   0  0  2  0  0  0  0  0  0  0  0  0
   20.5343    0.4504   14.7787 O   0  0  0  0  0  0  0  0  0  0  0  0
   18.2235    2.0124   18.7526 C   0  0  0  0  0  0  0  0  0  0  0  0
   17.6203   -0.2795   19.2465 C   0  0  0  0  0  0  0  0  0  0  0  0
   17.8683    2.3912   20.0417 C   0  0  0  0  0  0  0  0  0  0  0  0
   17.2366    0.1056   20.5288 C   0  0  0  0  0  0  0  0  0  0  0  0
   19.4367   -5.0151   15.5474 C   0  0  0  0  0  0  0  0  0  0  0  0
   21.0392   -3.0694   15.3198 N   0  0  0  0  0  0  0  0  0  0  0  0
   19.2855   -4.7835   16.7470 O   0  0  0  0  0  0  0  0  0  0  0  0
   20.6259   -4.3863   14.7801 C   0  0  1  0  0  0  0  0  0  0  0  0
   21.9170   -5.2614   14.6948 C   0  0  0  0  0  0  0  0  0  0  0  0
   22.3055   -3.0893   16.0658 C   0  0  0  0  0  0  0  0  0  0  0  0
   22.7614   -4.8134   13.4739 C   0  0  0  0  0  0  0  0  0  0  0  0
   21.7375   -6.7899   14.5487 C   0  0  0  0  0  0  0  0  0  0  0  0
   22.8188   -4.8128   16.1917 S   0  0  0  0  0  0  0  0  0  0  0  0
   18.5817   -5.7673   14.8359 N   0  0  0  0  0  0  0  0  0  0  0  0
   17.4180   -6.4614   15.3847 C   0  0  0  0  0  0  0  0  0  0  0  0
   16.1201   -6.1598   14.6496 C   0  0  0  0  0  0  0  0  0  0  0  0
   15.4844   -4.9050   14.7288 C   0  0  0  0  0  0  0  0  0  0  0  0
   14.2425   -4.7295   14.1119 C   0  0  0  0  0  0  0  0  0  0  0  0
   13.6226   -5.7850   13.4484 C   0  0  0  0  0  0  0  0  0  0  0  0
   14.2638   -7.0144   13.3454 C   0  0  0  0  0  0  0  0  0  0  0  0
   15.5069   -7.1994   13.9405 C   0  0  0  0  0  0  0  0  0  0  0  0
   16.0866   -3.7369   15.4990 C   0  0  0  0  0  0  0  0  0  0  0  0
  1  2  2  0
  1  6  1  0
  2  3  1  0
  3  4  2  0
  4  5  1  0
  4  8  1  0
  5  6  2  0
  5  7  1  0
  6  9  1  0
  8 10  2  0
  8 12  1  0
 11 13  2  0
 11 14  1  0
 11 25  1  0
 12 18  1  0
 14 18  1  0
 14 19  1  6
 15 16  1  0
 15 20  2  0
 15 21  1  0
 18 16  1  6
 17 22  2  0
 17 23  1  0
 20 22  1  0
 21 23  2  0
 24 26  2  0
 27 24  1  1
 24 33  1  0
 25 27  1  0
 25 29  1  0
 27 28  1  0
 28 30  1  0
 28 31  1  0
 28 32  1  0
 29 32  1  0
 33 34  1  0
 34 35  1  0
 35 36  2  0
 35 40  1  0
 36 37  1  0
 36 41  1  0
 37 38  2  0
 38 39  1  0
 39 40  2  0
M  END
$$$$
