1S3V_ligand
     RDKit          3D

 27 29  0  0  1  0  0  0  0  0999 V2000
   -0.0323   32.0817    0.2701 C   0  0  2  0  0  0  0  0  0  0  0  0
   -0.9551   32.4728    2.5470 C   0  0  0  0  0  0  0  0  0  0  0  0
   -1.5938   31.2212    2.6272 C   0  0  0  0  0  0  0  0  0  0  0  0
   -2.4414   30.8182    3.8529 C   0  0  0  0  0  0  0  0  0  0  0  0
   -3.1699   29.4609    3.6916 C   0  0  1  0  0  0  0  0  0  0  0  0
   -2.2542   28.4608    2.9528 C   0  0  0  0  0  0  0  0  0  0  0  0
   -1.9588   28.9546    1.5288 C   0  0  0  0  0  0  0  0  0  0  0  0
   -1.4103   30.3750    1.5794 C   0  0  0  0  0  0  0  0  0  0  0  0
   -3.6399   28.9711    5.0841 C   0  0  0  0  0  0  0  0  0  0  0  0
   -4.2682   26.5331    4.8838 C   0  0  0  0  0  0  0  0  0  0  0  0
   -5.1466   25.6139    4.2929 C   0  0  0  0  0  0  0  0  0  0  0  0
   -4.8099   24.2585    4.1500 C   0  0  0  0  0  0  0  0  0  0  0  0
   -6.9513   23.6950    3.1742 C   0  0  0  0  0  0  0  0  0  0  0  0
   -3.5607   23.8197    4.6016 C   0  0  0  0  0  0  0  0  0  0  0  0
   -2.4372   22.1447    3.3944 C   0  0  0  0  0  0  0  0  0  0  0  0
   -2.6585   24.7118    5.1891 C   0  0  0  0  0  0  0  0  0  0  0  0
   -0.5132   25.0447    6.2651 C   0  0  0  0  0  0  0  0  0  0  0  0
   -3.0209   26.0601    5.3147 C   0  0  0  0  0  0  0  0  0  0  0  0
   -0.5638   30.7545    0.5634 N   0  0  0  0  0  0  0  0  0  0  0  0
    1.3531   32.0817   -0.1259 N   0  0  0  0  0  0  0  0  0  0  0  0
   -0.2138   32.8519    1.4994 N   0  0  0  0  0  0  0  0  0  0  0  0
   -1.0771   33.3520    3.5356 N   0  0  0  0  0  0  0  0  0  0  0  0
   -4.6368   27.8940    5.0617 N   0  0  0  0  0  0  0  0  0  0  0  0
   -5.6509   23.3081    3.6012 O   0  0  0  0  0  0  0  0  0  0  0  0
   -3.2379   22.4856    4.5177 O   0  0  0  0  0  0  0  0  0  0  0  0
   -1.4527   24.1912    5.6253 O   0  0  0  0  0  0  0  0  0  0  0  0
   -6.0348   28.3053    4.9280 C   0  0  0  0  0  0  0  0  0  0  0  0
  1 19  1  0
  1 20  1  1
  1 21  1  0
  2  3  1  0
  2 21  2  0
  2 22  1  0
  3  4  1  0
  3  8  2  0
  4  5  1  0
  5  6  1  0
  5  9  1  1
  6  7  1  0
  7  8  1  0
  8 19  1  0
  9 23  1  0
 10 11  2  0
 10 18  1  0
 10 23  1  0
 11 12  1  0
 12 14  2  0
 12 24  1  0
 13 24  1  0
 14 16  1  0
 14 25  1  0
 15 25  1  0
 16 18  2  0
 16 26  1  0
 17 26  1  0
 23 27  1  0
M  CHG  1  21   1
M  END
$$$$
