7UJ5_ligand
     RDKit          3D

 10  9  0  0  1  0  0  0  0  0999 V2000
  -25.6282   16.1500  -14.1719 N   0  0  0  0  0  0  0  0  0  0  0  0
  -24.5020   16.9758  -13.6966 C   0  0  1  0  0  0  0  0  0  0  0  0
  -24.8832   18.4603  -13.8408 C   0  0  0  0  0  0  0  0  0  0  0  0
  -26.0369   18.8697  -13.7721 O   0  0  0  0  0  0  0  0  0  0  0  0
  -24.1003   16.6534  -12.2400 C   0  0  0  0  0  0  0  0  0  0  0  0
  -23.4363   15.2813  -12.0498 C   0  0  0  0  0  0  0  0  0  0  0  0
  -22.1196   15.2064  -12.8093 C   0  0  0  0  0  0  0  0  0  0  0  0
  -22.0038   14.6668  -13.9050 O   0  0  0  0  0  0  0  0  0  0  0  0
  -21.1083   15.8501  -12.1613 O   0  0  0  0  0  0  0  0  0  0  0  0
  -23.7853   19.2528  -13.9993 O   0  0  0  0  0  0  0  0  0  0  0  0
  2  1  1  1
  2  3  1  0
  2  5  1  0
  3  4  2  0
  3 10  1  0
  5  6  1  0
  6  7  1  0
  7  8  2  0
  7  9  1  0
M  END
$$$$
