7O0N_ligand
     RDKit          3D

 25 26  0  0  1  0  0  0  0  0999 V2000
    8.3492   25.4703   30.5235 O   0  0  0  0  0  0  0  0  0  0  0  0
    9.2144   24.2385   30.2471 P   0  0  0  0  0  0  0  0  0  0  0  0
   10.5946   24.5948   29.6711 O   0  0  0  0  0  0  0  0  0  0  0  0
    9.3139   23.2907   31.4543 O   0  0  0  0  0  0  0  0  0  0  0  0
    8.3654   23.3526   29.0162 O   0  0  0  0  0  0  0  0  0  0  0  0
    8.6099   22.8182   27.4193 P   0  0  2  0  0  0  0  0  0  0  0  0
    9.1504   23.9561   26.5898 O   0  0  0  0  0  0  0  0  0  0  0  0
    7.3985   22.0336   26.9956 O   0  0  0  0  0  0  0  0  0  0  0  0
    9.8965   21.7170   27.7195 O   0  0  0  0  0  0  0  0  0  0  0  0
    9.6512   20.6692   28.6417 C   0  0  0  0  0  0  0  0  0  0  0  0
   11.0039   20.2266   29.2080 C   0  0  1  0  0  0  0  0  0  0  0  0
   10.7652   19.2848   30.2545 O   0  0  0  0  0  0  0  0  0  0  0  0
   11.9260   19.4966   28.2131 C   0  0  1  0  0  0  0  0  0  0  0  0
   13.2745   19.9380   28.3191 O   0  0  0  0  0  0  0  0  0  0  0  0
   11.7295   18.0229   28.5782 C   0  0  1  0  0  0  0  0  0  0  0  0
   12.7615   17.1154   28.2548 O   0  0  0  0  0  0  0  0  0  0  0  0
   11.6047   18.1891   30.0897 C   0  0  2  0  0  0  0  0  0  0  0  0
   11.1745   17.0591   30.9126 N   0  0  0  0  0  0  0  0  0  0  0  0
   11.8110   16.7676   32.1132 C   0  0  0  0  0  0  0  0  0  0  0  0
   12.7618   17.4498   32.4949 O   0  0  0  0  0  0  0  0  0  0  0  0
   11.2997   15.6778   32.8459 N   0  0  0  0  0  0  0  0  0  0  0  0
   10.2384   15.0472   32.4968 C   0  0  0  0  0  0  0  0  0  0  0  0
    9.7528   14.0633   33.2564 N   0  0  0  0  0  0  0  0  0  0  0  0
    9.5420   15.3727   31.2923 C   0  0  0  0  0  0  0  0  0  0  0  0
   10.0452   16.3673   30.5483 C   0  0  0  0  0  0  0  0  0  0  0  0
  1  2  1  0
  2  3  2  0
  2  4  1  0
  2  5  1  0
  5  6  1  0
  6  7  2  0
  6  8  1  6
  6  9  1  0
  9 10  1  0
 11 10  1  6
 11 12  1  0
 11 13  1  0
 12 17  1  0
 13 14  1  1
 13 15  1  0
 15 16  1  1
 15 17  1  0
 17 18  1  1
 18 19  1  0
 18 25  1  0
 19 20  2  0
 19 21  1  0
 21 22  2  0
 22 23  1  0
 22 24  1  0
 24 25  2  0
M  CHG  3   1  -1   4  -1   8  -1
M  END
$$$$
