7TOM_ligand
     RDKit          3D

 18 20  0  0  1  0  0  0  0  0999 V2000
   17.8550   53.7286   27.7616 N   0  0  0  0  0  0  0  0  0  0  0  0
   18.2153   53.3266   28.9846 C   0  0  0  0  0  0  0  0  0  0  0  0
   18.6984   54.0528   30.0033 N   0  0  0  0  0  0  0  0  0  0  0  0
   18.7880   55.3682   29.6820 C   0  0  0  0  0  0  0  0  0  0  0  0
   19.2133   56.4143   30.4500 N   0  0  0  0  0  0  0  0  0  0  0  0
   19.0983   57.5114   29.6698 C   0  0  0  0  0  0  0  0  0  0  0  0
   18.6510   57.2548   28.4665 N   0  0  0  0  0  0  0  0  0  0  0  0
   18.4556   55.9269   28.4640 C   0  0  0  0  0  0  0  0  0  0  0  0
   17.9828   55.0477   27.4660 C   0  0  0  0  0  0  0  0  0  0  0  0
   17.6400   55.4669   26.1924 N   0  0  0  0  0  0  0  0  0  0  0  0
   19.7263   56.2895   31.8669 C   0  0  1  0  0  0  0  0  0  0  0  0
   20.4270   57.4960   32.4515 C   0  0  1  0  0  0  0  0  0  0  0  0
   20.5140   57.0195   33.8961 C   0  0  1  0  0  0  0  0  0  0  0  0
   19.1980   56.2510   34.1033 C   0  0  1  0  0  0  0  0  0  0  0  0
   18.1388   57.0120   34.9013 C   0  0  0  0  0  0  0  0  0  0  0  0
   18.7069   56.0311   32.7800 O   0  0  0  0  0  0  0  0  0  0  0  0
   21.6427   57.7458   31.7863 O   0  0  0  0  0  0  0  0  0  0  0  0
   21.6544   56.2289   34.1866 O   0  0  0  0  0  0  0  0  0  0  0  0
  1  2  2  0
  1  9  1  0
  2  3  1  0
  3  4  2  0
  4  5  1  0
  4  8  1  0
  5  6  1  0
 11  5  1  6
  6  7  2  0
  7  8  1  0
  8  9  2  0
  9 10  1  0
 11 12  1  0
 11 16  1  0
 12 13  1  0
 12 17  1  6
 13 14  1  0
 13 18  1  6
 14 15  1  1
 14 16  1  0
M  END
$$$$
