5S8I_ligand
     RDKit          3D

 13 14  0  0  1  0  0  0  0  0999 V2000
  -24.0187   14.9185   30.5911 C   0  0  0  0  0  0  0  0  0  0  0  0
  -23.3680   14.3256   29.4292 N   0  0  0  0  0  0  0  0  0  0  0  0
  -23.9863   13.5667   28.5092 C   0  0  0  0  0  0  0  0  0  0  0  0
  -23.1414   13.1300   27.4172 C   0  0  0  0  0  0  0  0  0  0  0  0
  -21.7654   13.3182   27.2045 C   0  0  0  0  0  0  0  0  0  0  0  0
  -21.3148   12.7299   26.0045 C   0  0  0  0  0  0  0  0  0  0  0  0
  -22.3172   12.0741   25.3151 C   0  0  0  0  0  0  0  0  0  0  0  0
  -23.8455   12.2181   26.1054 S   0  0  0  0  0  0  0  0  0  0  0  0
  -20.0120   12.7960   25.5812 O   0  0  0  0  0  0  0  0  0  0  0  0
  -19.2371   13.8051   26.2360 C   0  0  0  0  0  0  0  0  0  0  0  0
  -19.5235   13.8478   27.7577 C   0  0  0  0  0  0  0  0  0  0  0  0
  -20.9208   14.0152   28.0393 O   0  0  0  0  0  0  0  0  0  0  0  0
  -25.1852   13.2776   28.5633 O   0  0  0  0  0  0  0  0  0  0  0  0
  1  2  1  0
  2  3  1  0
  3  4  1  0
  3 13  2  0
  4  5  2  0
  4  8  1  0
  5  6  1  0
  5 12  1  0
  6  7  2  0
  6  9  1  0
  7  8  1  0
  9 10  1  0
 10 11  1  0
 11 12  1  0
M  END
$$$$
