1NAV_ligand
     RDKit          3D

 23 24  0  0  1  0  0  0  0  0999 V2000
   44.7331   13.4176   17.9173 O   0  0  0  0  0  0  0  0  0  0  0  0
   43.9991   14.3932   18.1831 C   0  0  0  0  0  0  0  0  0  0  0  0
   42.8898   14.6188   17.6483 O   0  0  0  0  0  0  0  0  0  0  0  0
   44.4340   15.3377   19.3094 C   0  0  0  0  0  0  0  0  0  0  0  0
   45.8602   15.8799   19.1942 C   0  0  0  0  0  0  0  0  0  0  0  0
   46.8363   15.4756   20.1082 C   0  0  0  0  0  0  0  0  0  0  0  0
   48.0924   16.0749   20.1222 C   0  0  0  0  0  0  0  0  0  0  0  0
   48.3934   17.0941   19.2136 C   0  0  0  0  0  0  0  0  0  0  0  0
   49.6292   17.6996   19.2509 O   0  0  0  0  0  0  0  0  0  0  0  0
   49.7924   18.8811   19.9439 C   0  0  0  0  0  0  0  0  0  0  0  0
   49.0914   19.1922   21.1175 C   0  0  0  0  0  0  0  0  0  0  0  0
   49.2843   20.4195   21.7473 C   0  0  0  0  0  0  0  0  0  0  0  0
   50.1788   21.3467   21.2143 C   0  0  0  0  0  0  0  0  0  0  0  0
   50.3044   22.5675   21.8198 O   0  0  0  0  0  0  0  0  0  0  0  0
   50.9215   21.0376   20.0649 C   0  0  0  0  0  0  0  0  0  0  0  0
   50.7200   19.7956   19.4464 C   0  0  0  0  0  0  0  0  0  0  0  0
   51.8965   22.0634   19.4745 C   0  0  0  0  0  0  0  0  0  0  0  0
   51.1716   23.0280   18.5193 C   0  0  0  0  0  0  0  0  0  0  0  0
   53.1563   21.4527   18.8401 C   0  0  0  0  0  0  0  0  0  0  0  0
   47.4369   17.4708   18.2596 C   0  0  0  0  0  0  0  0  0  0  0  0
   46.1786   16.8641   18.2523 C   0  0  0  0  0  0  0  0  0  0  0  0
   47.7842   18.7027   17.0980 Cl  0  0  0  0  0  0  0  0  0  0  0  0
   49.2553   15.5613   21.2898 Cl  0  0  0  0  0  0  0  0  0  0  0  0
  1  2  1  0
  2  3  2  0
  2  4  1  0
  4  5  1  0
  5  6  2  0
  5 21  1  0
  6  7  1  0
  7  8  2  0
  7 23  1  0
  8  9  1  0
  8 20  1  0
  9 10  1  0
 10 11  2  0
 10 16  1  0
 11 12  1  0
 12 13  2  0
 13 14  1  0
 13 15  1  0
 15 16  2  0
 15 17  1  0
 17 18  1  0
 17 19  1  0
 20 21  2  0
 20 22  1  0
M  CHG  1   1  -1
M  END
$$$$
