7BLA_ligand
     RDKit          3D

 32 34  0  0  1  0  0  0  0  0999 V2000
   -8.0349    3.4023    3.8523 C   0  0  0  0  0  0  0  0  0  0  0  0
   -6.6942    4.0841    3.8431 C   0  0  0  0  0  0  0  0  0  0  0  0
   -5.0388    5.1825    2.6403 C   0  0  0  0  0  0  0  0  0  0  0  0
   -5.8283    5.4761   -0.1581 C   0  0  0  0  0  0  0  0  0  0  0  0
   -3.3658    4.7081    0.6865 O   0  0  0  0  0  0  0  0  0  0  0  0
   -4.0574    7.1040    1.1388 O   0  0  0  0  0  0  0  0  0  0  0  0
   -4.6062    4.7427    4.8609 C   0  0  0  0  0  0  0  0  0  0  0  0
  -16.7408    1.1697    5.4940 C   0  0  0  0  0  0  0  0  0  0  0  0
  -14.5243    1.0185    4.2586 C   0  0  0  0  0  0  0  0  0  0  0  0
  -13.7395    0.3470    3.1146 C   0  0  0  0  0  0  0  0  0  0  0  0
  -12.4568    1.1055    2.7479 C   0  0  0  0  0  0  0  0  0  0  0  0
  -10.4926    2.0040    3.8395 C   0  0  0  0  0  0  0  0  0  0  0  0
   -9.7958    2.1959    5.0284 C   0  0  0  0  0  0  0  0  0  0  0  0
   -8.5888    2.8881    5.0354 C   0  0  0  0  0  0  0  0  0  0  0  0
   -3.9924    4.1991    7.2293 C   0  0  0  0  0  0  0  0  0  0  0  0
   -3.7618    2.6759    7.2981 C   0  0  0  0  0  0  0  0  0  0  0  0
   -4.2548    2.0259    8.6064 C   0  0  0  0  0  0  0  0  0  0  0  0
   -6.4359    2.9635    9.5228 C   0  0  0  0  0  0  0  0  0  0  0  0
   -7.7590    2.6644    9.2591 C   0  0  0  0  0  0  0  0  0  0  0  0
   -7.7128    1.6397    8.3095 C   0  0  0  0  0  0  0  0  0  0  0  0
   -5.8636    4.1293    4.9736 C   0  0  0  0  0  0  0  0  0  0  0  0
   -8.7696    3.2348    2.6705 C   0  0  0  0  0  0  0  0  0  0  0  0
   -9.9753    2.5413    2.6560 C   0  0  0  0  0  0  0  0  0  0  0  0
  -15.9098   -1.1105    4.7501 C   0  0  0  0  0  0  0  0  0  0  0  0
  -15.9306    0.3996    4.4317 N   0  0  0  0  0  0  0  0  0  0  0  0
   -6.2724    4.6195    2.6603 N   0  0  0  0  0  0  0  0  0  0  0  0
   -4.1809    5.2783    3.6868 N   0  0  0  0  0  0  0  0  0  0  0  0
   -3.6884    4.7689    5.9217 N   0  0  0  0  0  0  0  0  0  0  0  0
   -5.7068    2.1086    8.7350 N   0  0  0  0  0  0  0  0  0  0  0  0
   -6.4834    1.3192    7.9749 N   0  0  0  0  0  0  0  0  0  0  0  0
  -11.6669    1.2842    3.9206 O   0  0  0  0  0  0  0  0  0  0  0  0
   -4.3974    5.6813    1.0466 S   0  0  0  0  0  0  0  0  0  0  0  0
  1  2  1  0
  1 14  2  0
  1 22  1  0
  2 21  2  0
  2 26  1  0
  3 26  2  0
  3 27  1  0
  3 32  1  0
  4 32  1  0
  5 32  2  0
  6 32  2  0
  7 21  1  0
  7 27  2  0
  7 28  1  0
  8 25  1  0
  9 10  1  0
  9 25  1  0
 10 11  1  0
 11 31  1  0
 12 13  2  0
 12 23  1  0
 12 31  1  0
 13 14  1  0
 15 16  1  0
 15 28  1  0
 16 17  1  0
 17 29  1  0
 18 19  2  0
 18 29  1  0
 19 20  1  0
 20 30  2  0
 22 23  2  0
 24 25  1  0
 29 30  1  0
M  CHG  1  25   1
M  END
$$$$
