7WJB_ligand
     RDKit          3D

 12 12  0  0  1  0  0  0  0  0999 V2000
   54.3759   22.9810   13.6273 C   0  0  2  0  0  0  0  0  0  0  0  0
   53.4899   22.4228   15.4208 C   0  0  2  0  0  0  0  0  0  0  0  0
   53.4468   20.4362   15.9096 C   0  0  1  0  0  0  0  0  0  0  0  0
   54.3355   19.0639   14.6521 C   0  0  1  0  0  0  0  0  0  0  0  0
   53.6887   17.7193   14.3453 C   0  0  0  0  0  0  0  0  0  0  0  0
   55.2799   21.4114   12.4189 C   0  0  2  0  0  0  0  0  0  0  0  0
   54.7811   21.5324   11.1776 O   0  0  0  0  0  0  0  0  0  0  0  0
   54.8855   24.2843   13.6508 O   0  0  0  0  0  0  0  0  0  0  0  0
   52.2563   23.0217   15.6270 O   0  0  0  0  0  0  0  0  0  0  0  0
   53.6070   20.1947   17.2824 O   0  0  0  0  0  0  0  0  0  0  0  0
   55.1982   19.7055   13.1128 O   0  0  0  0  0  0  0  0  0  0  0  0
   53.0504   17.7809   13.1284 O   0  0  0  0  0  0  0  0  0  0  0  0
  1  2  1  0
  1  6  1  0
  1  8  1  1
  2  3  1  0
  2  9  1  6
  3  4  1  0
  3 10  1  1
  4  5  1  6
  4 11  1  0
  5 12  1  0
  6  7  1  6
  6 11  1  0
M  END
$$$$
