1SG0_ligand
     RDKit          3D

 17 18  0  0  1  0  0  0  0  0999 V2000
   32.2931   16.8457   30.9394 C   0  0  0  0  0  0  0  0  0  0  0  0
   31.7464   16.0299   31.9244 C   0  0  0  0  0  0  0  0  0  0  0  0
   32.5793   15.3428   32.8028 C   0  0  0  0  0  0  0  0  0  0  0  0
   33.9653   15.4625   32.6868 C   0  0  0  0  0  0  0  0  0  0  0  0
   34.5343   16.2658   31.6916 C   0  0  0  0  0  0  0  0  0  0  0  0
   33.6783   16.9627   30.8242 C   0  0  0  0  0  0  0  0  0  0  0  0
   36.0092   16.3034   31.5661 C   0  0  0  0  0  0  0  0  0  0  0  0
   36.7154   16.9032   30.5845 C   0  0  0  0  0  0  0  0  0  0  0  0
   38.1822   16.8892   30.4021 C   0  0  0  0  0  0  0  0  0  0  0  0
   39.0324   16.0572   31.1436 C   0  0  0  0  0  0  0  0  0  0  0  0
   40.4049   16.0668   30.9034 C   0  0  0  0  0  0  0  0  0  0  0  0
   40.9323   16.9040   29.9232 C   0  0  0  0  0  0  0  0  0  0  0  0
   40.1014   17.7436   29.1890 C   0  0  0  0  0  0  0  0  0  0  0  0
   38.7317   17.7278   29.4281 C   0  0  0  0  0  0  0  0  0  0  0  0
   42.2749   16.8847   29.6641 O   0  0  0  0  0  0  0  0  0  0  0  0
   32.0358   14.5411   33.7693 O   0  0  0  0  0  0  0  0  0  0  0  0
   31.4636   17.5216   30.0856 O   0  0  0  0  0  0  0  0  0  0  0  0
  1  2  2  0
  1  6  1  0
  1 17  1  0
  2  3  1  0
  3  4  2  0
  3 16  1  0
  4  5  1  0
  5  6  2  0
  5  7  1  0
  7  8  2  0
  8  9  1  0
  9 10  2  0
  9 14  1  0
 10 11  1  0
 11 12  2  0
 12 13  1  0
 12 15  1  0
 13 14  2  0
M  END
$$$$
