7CNS_ligand
     RDKit          3D

 14 13  0  0  1  0  0  0  0  0999 V2000
    2.8197  -19.3110  -14.7684 O   0  0  0  0  0  0  0  0  0  0  0  0
    3.6194  -20.1623  -15.7626 P   0  0  0  0  0  0  0  0  0  0  0  0
    4.3845  -21.3151  -15.0928 O   0  0  0  0  0  0  0  0  0  0  0  0
    4.5101  -19.3289  -16.7014 O   0  0  0  0  0  0  0  0  0  0  0  0
    2.4427  -20.9607  -16.7698 O   0  0  0  0  0  0  0  0  0  0  0  0
    1.6297  -20.2352  -17.6578 C   0  0  0  0  0  0  0  0  0  0  0  0
    0.7849  -21.2673  -18.4255 C   0  0  0  0  0  0  0  0  0  0  0  0
    0.1952  -20.8188  -19.7859 C   0  0  2  0  0  0  0  0  0  0  0  0
   -0.6068  -19.6748  -19.5606 O   0  0  0  0  0  0  0  0  0  0  0  0
   -0.7730  -21.9278  -20.2759 C   0  0  0  0  0  0  0  0  0  0  0  0
    1.3677  -20.4281  -20.7580 C   0  0  0  0  0  0  0  0  0  0  0  0
    1.0665  -20.1148  -22.2377 C   0  0  0  0  0  0  0  0  0  0  0  0
   -0.1030  -19.9911  -22.6466 O   0  0  0  0  0  0  0  0  0  0  0  0
    2.0557  -19.9920  -22.9868 O   0  0  0  0  0  0  0  0  0  0  0  0
  1  2  1  0
  2  3  1  0
  2  4  2  0
  2  5  1  0
  5  6  1  0
  6  7  1  0
  7  8  1  0
  8  9  1  0
  8 10  1  6
  8 11  1  0
 11 12  1  0
 12 13  1  0
 12 14  2  0
M  CHG  3   1  -1   3  -1  13  -1
M  END
$$$$
