7AFX_ligand
     RDKit          3D

 20 22  0  0  1  0  0  0  0  0999 V2000
  -30.9275   10.6452   69.9249 C   0  0  0  0  0  0  0  0  0  0  0  0
  -31.7306    6.4887   69.2330 C   0  0  0  0  0  0  0  0  0  0  0  0
  -32.4729    8.7278   69.7369 C   0  0  0  0  0  0  0  0  0  0  0  0
  -29.9813   15.4116   69.3984 C   0  0  0  0  0  0  0  0  0  0  0  0
  -29.9588   14.0021   68.8396 C   0  0  0  0  0  0  0  0  0  0  0  0
  -29.4645   13.7877   67.5491 C   0  0  0  0  0  0  0  0  0  0  0  0
  -29.4549   12.5300   66.9536 C   0  0  0  0  0  0  0  0  0  0  0  0
  -29.9312   11.4118   67.6301 C   0  0  0  0  0  0  0  0  0  0  0  0
  -30.3996   11.5579   68.9438 C   0  0  0  0  0  0  0  0  0  0  0  0
  -30.3979   12.8594   69.5229 C   0  0  0  0  0  0  0  0  0  0  0  0
  -31.1610   11.3912   71.0834 C   0  0  0  0  0  0  0  0  0  0  0  0
  -31.1534    9.1880   69.7037 C   0  0  0  0  0  0  0  0  0  0  0  0
  -30.1150    8.2784   69.4438 C   0  0  0  0  0  0  0  0  0  0  0  0
  -30.4088    6.9318   69.2196 C   0  0  0  0  0  0  0  0  0  0  0  0
  -32.7623    7.3868   69.4975 C   0  0  0  0  0  0  0  0  0  0  0  0
  -31.5688   11.0370   72.4617 C   0  0  0  0  0  0  0  0  0  0  0  0
  -30.8691   12.7084   70.8043 N   0  0  0  0  0  0  0  0  0  0  0  0
  -32.0917   11.9136   73.1925 O   0  0  0  0  0  0  0  0  0  0  0  0
  -31.3436    9.8704   72.8366 O   0  0  0  0  0  0  0  0  0  0  0  0
  -28.4613    8.7807   69.3942 Cl  0  0  0  0  0  0  0  0  0  0  0  0
  1  9  1  0
  1 11  2  0
  1 12  1  0
  2 14  2  0
  2 15  1  0
  3 12  1  0
  3 15  2  0
  4  5  1  0
  5  6  2  0
  5 10  1  0
  6  7  1  0
  7  8  2  0
  8  9  1  0
  9 10  2  0
 10 17  1  0
 11 16  1  0
 11 17  1  0
 12 13  2  0
 13 14  1  0
 13 20  1  0
 16 18  1  0
 16 19  2  0
M  CHG  1  18  -1
M  END
$$$$
