7OCB_ligand
     RDKit          3D

 41 45  0  0  1  0  0  0  0  0999 V2000
   -4.9442  -44.0975   -9.1174 N   0  0  0  0  0  0  0  0  0  0  0  0
   -4.1780  -37.3833   -8.6052 N   0  0  0  0  0  0  0  0  0  0  0  0
   -6.9287  -39.5086   -7.6344 C   0  0  0  0  0  0  0  0  0  0  0  0
   -6.3550  -41.8744   -8.3042 C   0  0  0  0  0  0  0  0  0  0  0  0
   -7.2206  -42.9433   -8.9935 C   0  0  0  0  0  0  0  0  0  0  0  0
   -6.3726  -44.0068   -9.7237 C   0  0  0  0  0  0  0  0  0  0  0  0
   -4.1871  -45.3528   -9.6326 C   0  0  0  0  0  0  0  0  0  0  0  0
   -4.6174  -46.6381   -8.8928 C   0  0  0  0  0  0  0  0  0  0  0  0
   -5.4329  -37.7905   -8.0880 C   0  0  0  0  0  0  0  0  0  0  0  0
   -3.4664  -38.5843  -10.7381 C   0  0  0  0  0  0  0  0  0  0  0  0
   -2.2961  -36.4135  -11.5529 C   0  0  0  0  0  0  0  0  0  0  0  0
   -9.7935  -36.5805   -6.4818 C   0  0  0  0  0  0  0  0  0  0  0  0
  -10.5575  -34.2936   -6.1394 C   0  0  0  0  0  0  0  0  0  0  0  0
  -11.8451  -33.6139   -5.6422 C   0  0  0  0  0  0  0  0  0  0  0  0
  -13.2709  -36.1521   -2.9493 C   0  0  0  0  0  0  0  0  0  0  0  0
  -14.9003  -38.1603   -2.5064 C   0  0  0  0  0  0  0  0  0  0  0  0
  -16.2548  -38.8785   -4.3744 C   0  0  0  0  0  0  0  0  0  0  0  0
   -7.2421  -40.8788   -7.7057 N   0  0  0  0  0  0  0  0  0  0  0  0
  -11.8440  -39.5636   -5.7963 C   0  0  0  0  0  0  0  0  0  0  0  0
  -11.4237  -38.2116   -5.9398 O   0  0  0  0  0  0  0  0  0  0  0  0
  -10.1377  -37.9327   -6.3713 C   0  0  0  0  0  0  0  0  0  0  0  0
   -4.9431  -43.9189   -7.5772 C   0  0  0  0  0  0  0  0  0  0  0  0
   -5.4222  -42.4884   -7.2324 C   0  0  0  0  0  0  0  0  0  0  0  0
   -3.1998  -38.2842   -9.2422 C   0  0  0  0  0  0  0  0  0  0  0  0
   -3.9511  -37.6234  -13.0630 C   0  0  0  0  0  0  0  0  0  0  0  0
   -7.5629  -37.1917   -7.2096 C   0  0  0  0  0  0  0  0  0  0  0  0
   -8.5026  -36.1984   -6.8705 C   0  0  0  0  0  0  0  0  0  0  0  0
   -9.1997  -38.9215   -6.6993 C   0  0  0  0  0  0  0  0  0  0  0  0
  -12.3576  -34.1074   -4.2689 C   0  0  0  0  0  0  0  0  0  0  0  0
  -14.3086  -37.1856   -3.3113 C   0  0  0  0  0  0  0  0  0  0  0  0
  -15.8661  -39.0134   -3.0411 C   0  0  0  0  0  0  0  0  0  0  0  0
  -15.6799  -37.8893   -5.1730 C   0  0  0  0  0  0  0  0  0  0  0  0
   -7.9026  -38.5759   -7.1590 C   0  0  0  0  0  0  0  0  0  0  0  0
  -14.7008  -37.0478   -4.6413 C   0  0  0  0  0  0  0  0  0  0  0  0
  -13.9702  -35.9018   -5.2951 C   0  0  0  0  0  0  0  0  0  0  0  0
   -2.6713  -45.0923   -9.5667 C   0  0  0  0  0  0  0  0  0  0  0  0
   -5.7131  -39.1131   -8.0952 N   0  0  0  0  0  0  0  0  0  0  0  0
   -3.5544  -37.3043  -11.6084 N   0  0  0  0  0  0  0  0  0  0  0  0
   -6.3011  -36.8644   -7.6529 N   0  0  0  0  0  0  0  0  0  0  0  0
  -12.8420  -35.5764   -4.3061 N   0  0  0  0  0  0  0  0  0  0  0  0
  -10.8019  -35.6881   -6.1971 O   0  0  0  0  0  0  0  0  0  0  0  0
  1  6  1  0
  1  7  1  0
  1 22  1  0
  2  9  1  0
  2 24  1  0
  3 18  1  0
  3 33  2  0
  3 37  1  0
  4  5  1  0
  4 18  1  0
  4 23  1  0
  5  6  1  0
  7  8  1  0
  7 36  1  0
  9 37  2  0
  9 39  1  0
 10 24  1  0
 10 38  1  0
 11 38  1  0
 12 21  1  0
 12 27  2  0
 12 41  1  0
 13 14  1  0
 13 41  1  0
 14 29  1  0
 15 30  1  0
 15 40  1  0
 16 30  2  0
 16 31  1  0
 17 31  2  0
 17 32  1  0
 19 20  1  0
 20 21  1  0
 21 28  2  0
 22 23  1  0
 25 38  1  0
 26 27  1  0
 26 33  1  0
 26 39  2  0
 28 33  1  0
 29 40  1  0
 30 34  1  0
 32 34  2  0
 34 35  1  0
 35 40  1  0
M  CHG  4   1   1  38   1  39   1  40   1
M  END
$$$$
