6ZK5_ligand
     RDKit          3D

 19 21  0  0  1  0  0  0  0  0999 V2000
   12.9820    7.3513  -15.6135 O   0  0  0  0  0  0  0  0  0  0  0  0
   14.3699    7.5933  -15.6083 C   0  0  0  0  0  0  0  0  0  0  0  0
   14.9980    7.3298  -16.9952 C   0  0  1  0  0  0  0  0  0  0  0  0
   14.4517    8.1650  -18.0598 N   0  0  0  0  0  0  0  0  0  0  0  0
   16.5157    7.5712  -17.0348 C   0  0  1  0  0  0  0  0  0  0  0  0
   17.1223    6.6122  -17.8825 O   0  0  0  0  0  0  0  0  0  0  0  0
   16.6444    9.0326  -17.5059 C   0  0  1  0  0  0  0  0  0  0  0  0
   17.6951    9.2358  -18.4372 O   0  0  0  0  0  0  0  0  0  0  0  0
   15.2567    9.3794  -18.0962 C   0  0  2  0  0  0  0  0  0  0  0  0
   14.4781   10.4921  -17.3964 C   0  0  0  0  0  0  0  0  0  0  0  0
   14.8038   11.1856  -16.2268 C   0  0  0  0  0  0  0  0  0  0  0  0
   13.7535   11.9684  -15.8352 N   0  0  0  0  0  0  0  0  0  0  0  0
   12.7721   11.8670  -16.7747 C   0  0  0  0  0  0  0  0  0  0  0  0
   11.4297   12.4300  -16.8023 C   0  0  0  0  0  0  0  0  0  0  0  0
   10.8512   13.0849  -15.9413 O   0  0  0  0  0  0  0  0  0  0  0  0
   10.8301   12.1072  -17.9921 N   0  0  0  0  0  0  0  0  0  0  0  0
   11.3467   11.3466  -19.0202 C   0  0  0  0  0  0  0  0  0  0  0  0
   12.5200   10.8146  -18.9393 N   0  0  0  0  0  0  0  0  0  0  0  0
   13.2438   11.0466  -17.8022 C   0  0  0  0  0  0  0  0  0  0  0  0
  1  2  1  0
  3  2  1  1
  3  4  1  0
  3  5  1  0
  4  9  1  0
  5  6  1  6
  5  7  1  0
  7  8  1  6
  7  9  1  0
  9 10  1  1
 10 11  2  0
 10 19  1  0
 11 12  1  0
 12 13  1  0
 13 14  1  0
 13 19  2  0
 14 15  2  0
 14 16  1  0
 16 17  1  0
 17 18  2  0
 18 19  1  0
M  END
$$$$
