7MRH_ligand
     RDKit          3D

 24 26  0  0  1  0  0  0  0  0999 V2000
  -26.1252    5.4035  -32.2459 C   0  0  0  0  0  0  0  0  0  0  0  0
  -27.5489    7.2548  -32.9010 C   0  0  0  0  0  0  0  0  0  0  0  0
  -28.6699    6.5518  -32.4647 C   0  0  0  0  0  0  0  0  0  0  0  0
  -27.2586    4.7205  -31.7794 C   0  0  0  0  0  0  0  0  0  0  0  0
  -29.0961    2.9000  -29.2950 C   0  0  0  0  0  0  0  0  0  0  0  0
  -29.6864    4.0103  -28.4130 C   0  0  0  0  0  0  0  0  0  0  0  0
  -24.3015    4.3653  -30.9763 C   0  0  0  0  0  0  0  0  0  0  0  0
  -22.1455    3.6136  -31.7154 C   0  0  0  0  0  0  0  0  0  0  0  0
  -22.6256    4.0000  -33.1159 C   0  0  0  0  0  0  0  0  0  0  0  0
  -21.7669    3.7823  -34.2018 C   0  0  0  0  0  0  0  0  0  0  0  0
  -22.1566    4.1362  -35.4910 C   0  0  0  0  0  0  0  0  0  0  0  0
  -23.4087    4.7043  -35.7106 C   0  0  0  0  0  0  0  0  0  0  0  0
  -24.2725    4.9250  -34.6394 C   0  0  0  0  0  0  0  0  0  0  0  0
  -23.8909    4.5899  -33.3319 C   0  0  0  0  0  0  0  0  0  0  0  0
  -24.7784    4.7939  -32.1605 C   0  0  0  0  0  0  0  0  0  0  0  0
  -22.7018    3.4420  -29.3446 C   0  0  0  0  0  0  0  0  0  0  0  0
  -26.2848    6.6805  -32.7951 C   0  0  0  0  0  0  0  0  0  0  0  0
  -28.5386    5.2788  -31.9072 C   0  0  0  0  0  0  0  0  0  0  0  0
  -23.0745    3.8121  -30.7170 N   0  0  0  0  0  0  0  0  0  0  0  0
  -29.7150    4.6307  -31.5000 N   0  0  0  0  0  0  0  0  0  0  0  0
  -21.0070    3.1828  -31.5007 O   0  0  0  0  0  0  0  0  0  0  0  0
  -29.0095    2.1398  -31.9411 O   0  0  0  0  0  0  0  0  0  0  0  0
  -31.2852    2.6555  -30.9156 O   0  0  0  0  0  0  0  0  0  0  0  0
  -29.8477    2.9234  -31.0289 S   0  0  0  0  0  0  0  0  0  0  0  0
  1  4  1  0
  1 15  1  0
  1 17  2  0
  2  3  2  0
  2 17  1  0
  3 18  1  0
  4 18  2  0
  5  6  1  0
  5 24  1  0
  7 15  2  0
  7 19  1  0
  8  9  1  0
  8 19  1  0
  8 21  2  0
  9 10  1  0
  9 14  2  0
 10 11  2  0
 11 12  1  0
 12 13  2  0
 13 14  1  0
 14 15  1  0
 16 19  1  0
 18 20  1  0
 20 24  1  0
 22 24  2  0
 23 24  2  0
M  END
$$$$
