7L6D_ligand
     RDKit          3D

 28 30  0  0  1  0  0  0  0  0999 V2000
    8.0357    9.6333   21.4673 C   0  0  0  0  0  0  0  0  0  0  0  0
    6.1592    8.1791   21.9243 N   0  0  0  0  0  0  0  0  0  0  0  0
    6.2423    8.8027   24.7205 C   0  0  0  0  0  0  0  0  0  0  0  0
    6.8427   10.1516   26.7733 C   0  0  0  0  0  0  0  0  0  0  0  0
    8.2087   10.6343   29.7396 C   0  0  0  0  0  0  0  0  0  0  0  0
    7.1175    9.3972   23.7957 C   0  0  0  0  0  0  0  0  0  0  0  0
    3.8300    6.3139   21.2341 C   0  0  0  0  0  0  0  0  0  0  0  0
    9.4119   11.4789   20.7032 C   0  0  0  0  0  0  0  0  0  0  0  0
   11.2201   11.2192   18.9803 C   0  0  0  0  0  0  0  0  0  0  0  0
   10.0674   10.6419   19.7970 C   0  0  0  0  0  0  0  0  0  0  0  0
    9.6778    9.2948   19.6859 C   0  0  0  0  0  0  0  0  0  0  0  0
   10.3403    8.4597   18.7699 N   0  0  0  0  0  0  0  0  0  0  0  0
   10.2848    6.6845   18.7533 S   0  0  0  0  0  0  0  0  0  0  0  0
    8.6126    6.3277   17.9717 C   0  0  0  0  0  0  0  0  0  0  0  0
   10.2883    6.2156   20.1408 O   0  0  0  0  0  0  0  0  0  0  0  0
   11.3333    6.2557   17.8252 O   0  0  0  0  0  0  0  0  0  0  0  0
    8.6498    8.8179   20.5095 C   0  0  0  0  0  0  0  0  0  0  0  0
    7.0578    9.0646   22.4360 C   0  0  0  0  0  0  0  0  0  0  0  0
    5.3327    7.6296   22.8272 N   0  0  0  0  0  0  0  0  0  0  0  0
    5.3267    7.8608   24.2105 C   0  0  0  0  0  0  0  0  0  0  0  0
    6.2318    9.0998   26.0961 N   0  0  0  0  0  0  0  0  0  0  0  0
    6.4976   10.0769   28.0773 O   0  0  0  0  0  0  0  0  0  0  0  0
    6.9169   11.0521   29.0299 C   0  0  0  0  0  0  0  0  0  0  0  0
    7.5639   11.0293   26.2957 O   0  0  0  0  0  0  0  0  0  0  0  0
    4.3654    7.0942   24.7771 N   0  0  0  0  0  0  0  0  0  0  0  0
    3.7107    6.4445   23.7452 N   0  0  0  0  0  0  0  0  0  0  0  0
    4.2787    6.7702   22.6043 C   0  0  0  0  0  0  0  0  0  0  0  0
    8.4150   10.9779   21.5359 C   0  0  0  0  0  0  0  0  0  0  0  0
  1 17  1  0
  1 18  1  0
  1 28  2  0
  2 18  2  0
  2 19  1  0
  3  6  2  0
  3 20  1  0
  3 21  1  0
  4 21  1  0
  4 22  1  0
  4 24  2  0
  5 23  1  0
  6 18  1  0
  7 27  1  0
  8 10  2  0
  8 28  1  0
  9 10  1  0
 10 11  1  0
 11 12  1  0
 11 17  2  0
 12 13  1  0
 13 14  1  0
 13 15  2  0
 13 16  2  0
 19 20  1  0
 19 27  1  0
 20 25  2  0
 22 23  1  0
 25 26  1  0
 26 27  2  0
M  END
$$$$
