1LPZ_ligand
     RDKit          3D

 32 35  0  0  1  0  0  0  0  0999 V2000
    3.7581    9.6053   25.6253 C   0  0  0  0  0  0  0  0  0  0  0  0
    4.8241    8.7610   25.3278 C   0  0  0  0  0  0  0  0  0  0  0  0
    5.1372    8.5692   23.9785 C   0  0  0  0  0  0  0  0  0  0  0  0
    4.4005    9.1938   22.9355 C   0  0  0  0  0  0  0  0  0  0  0  0
    3.3200   10.0352   23.2678 C   0  0  0  0  0  0  0  0  0  0  0  0
    3.0223   10.2235   24.6207 C   0  0  0  0  0  0  0  0  0  0  0  0
    6.1148    7.7894   23.3829 N   0  0  0  0  0  0  0  0  0  0  0  0
    6.0320    7.8851   22.0010 C   0  0  0  0  0  0  0  0  0  0  0  0
    5.0003    8.7686   21.7059 C   0  0  0  0  0  0  0  0  0  0  0  0
    2.4730   10.7310   22.2185 C   0  0  0  0  0  0  0  0  0  0  0  0
    6.9513    7.2420   21.0834 C   0  0  0  0  0  0  0  0  0  0  0  0
    6.4057    6.8891   19.9073 N   0  0  0  0  0  0  0  0  0  0  0  0
    7.1082    6.0999   18.8903 C   0  0  0  0  0  0  0  0  0  0  0  0
    7.3872    4.6311   19.2281 C   0  0  0  0  0  0  0  0  0  0  0  0
    7.0561    6.9717   24.1358 C   0  0  0  0  0  0  0  0  0  0  0  0
    8.3400    7.6383   24.6040 C   0  0  0  0  0  0  0  0  0  0  0  0
    8.9098    8.7689   24.0146 C   0  0  0  0  0  0  0  0  0  0  0  0
   10.1086    9.2774   24.5136 C   0  0  0  0  0  0  0  0  0  0  0  0
   10.7282    8.6777   25.6086 C   0  0  0  0  0  0  0  0  0  0  0  0
   10.1794    7.5308   26.2164 C   0  0  0  0  0  0  0  0  0  0  0  0
    8.9922    7.0294   25.6613 C   0  0  0  0  0  0  0  0  0  0  0  0
    8.3805    3.9482   18.5172 C   0  0  0  0  0  0  0  0  0  0  0  0
    8.6479    2.6050   18.7847 C   0  0  0  0  0  0  0  0  0  0  0  0
    7.9307    1.9339   19.7743 C   0  0  0  0  0  0  0  0  0  0  0  0
    6.9585    2.6116   20.5086 C   0  0  0  0  0  0  0  0  0  0  0  0
    6.6891    3.9534   20.2389 C   0  0  0  0  0  0  0  0  0  0  0  0
   10.7810    6.8808   27.3953 C   0  0  0  0  0  0  0  0  0  0  0  0
   12.0472    7.0825   27.7142 N   0  0  0  0  0  0  0  0  0  0  0  0
    9.8607    1.7713   17.8866 Cl  0  0  0  0  0  0  0  0  0  0  0  0
    6.0781    1.7891   21.7423 Cl  0  0  0  0  0  0  0  0  0  0  0  0
    8.1122    6.9715   21.3920 O   0  0  0  0  0  0  0  0  0  0  0  0
   10.0409    6.0769   28.1422 N   0  0  0  0  0  0  0  0  0  0  0  0
  1  2  2  0
  1  6  1  0
  2  3  1  0
  3  4  2  0
  3  7  1  0
  4  5  1  0
  4  9  1  0
  5  6  2  0
  5 10  1  0
  7  8  1  0
  7 15  1  0
  8  9  2  0
  8 11  1  0
 11 12  1  0
 11 31  2  0
 12 13  1  0
 13 14  1  0
 14 22  2  0
 14 26  1  0
 15 16  1  0
 16 17  2  0
 16 21  1  0
 17 18  1  0
 18 19  2  0
 19 20  1  0
 20 21  2  0
 20 27  1  0
 22 23  1  0
 23 24  2  0
 23 29  1  0
 24 25  1  0
 25 26  2  0
 25 30  1  0
 27 28  2  0
 27 32  1  0
M  CHG  1  28   1
M  END
$$$$
