6YRV_ligand
     RDKit          3D

 17 16  0  0  1  0  0  0  0  0999 V2000
   21.2392   47.6720   21.7437 C   0  0  0  0  0  0  0  0  0  0  0  0
   22.5187   48.3138   22.2884 C   0  0  0  0  0  0  0  0  0  0  0  0
   22.2351   49.4698   23.2579 C   0  0  0  0  0  0  0  0  0  0  0  0
   23.4564   50.3788   23.4698 C   0  0  0  0  0  0  0  0  0  0  0  0
   23.3144   51.3816   24.6275 C   0  0  0  0  0  0  0  0  0  0  0  0
   22.0423   52.2518   24.6588 C   0  0  0  0  0  0  0  0  0  0  0  0
   21.7005   53.0562   23.3843 C   0  0  0  0  0  0  0  0  0  0  0  0
   22.8397   53.9221   22.8089 C   0  0  0  0  0  0  0  0  0  0  0  0
   22.3741   54.8383   21.6590 C   0  0  0  0  0  0  0  0  0  0  0  0
   23.5060   55.2649   20.7127 C   0  0  0  0  0  0  0  0  0  0  0  0
   23.0451   56.1966   19.5708 C   0  0  0  0  0  0  0  0  0  0  0  0
   23.9713   56.1556   18.3422 C   0  0  0  0  0  0  0  0  0  0  0  0
   23.8622   54.8307   17.5592 C   0  0  0  0  0  0  0  0  0  0  0  0
   25.2180   54.2096   17.1921 C   0  0  0  0  0  0  0  0  0  0  0  0
   25.0583   52.7954   16.6163 C   0  0  0  0  0  0  0  0  0  0  0  0
   26.3931   52.0614   16.4399 C   0  0  0  0  0  0  0  0  0  0  0  0
   26.1870   50.6158   15.9834 C   0  0  0  0  0  0  0  0  0  0  0  0
  1  2  1  0
  2  3  1  0
  3  4  1  0
  4  5  1  0
  5  6  1  0
  6  7  1  0
  7  8  1  0
  8  9  1  0
  9 10  1  0
 10 11  1  0
 11 12  1  0
 12 13  1  0
 13 14  1  0
 14 15  1  0
 15 16  1  0
 16 17  1  0
M  END
$$$$
