6Z5Z_ligand
     RDKit          3D

 12 12  0  0  1  0  0  0  0  0999 V2000
   -1.9960   14.9697   -7.6726 C   0  0  0  0  0  0  0  0  0  0  0  0
   -1.7073   13.8892   -8.7277 C   0  0  1  0  0  0  0  0  0  0  0  0
   -0.7348   12.7930   -8.2030 C   0  0  2  0  0  0  0  0  0  0  0  0
   -0.3410   11.8404   -9.3529 C   0  0  1  0  0  0  0  0  0  0  0  0
    0.2029   12.6208  -10.5637 C   0  0  1  0  0  0  0  0  0  0  0  0
   -0.7508   13.7698  -10.9415 C   0  0  0  0  0  0  0  0  0  0  0  0
   -2.7047   14.4804   -6.5444 O   0  0  0  0  0  0  0  0  0  0  0  0
   -2.9101   13.3064   -9.0737 O   0  0  0  0  0  0  0  0  0  0  0  0
   -1.2227   12.0799   -7.0739 O   0  0  0  0  0  0  0  0  0  0  0  0
    0.5294   10.8098   -8.9314 O   0  0  0  0  0  0  0  0  0  0  0  0
    1.5110   13.1288  -10.3942 O   0  0  0  0  0  0  0  0  0  0  0  0
   -1.1309   14.5760   -9.8175 O   0  0  0  0  0  0  0  0  0  0  0  0
  1  2  1  0
  1  7  1  0
  2  3  1  0
  2  8  1  6
  2 12  1  0
  3  4  1  0
  3  9  1  1
  4  5  1  0
  4 10  1  1
  5  6  1  0
  5 11  1  1
  6 12  1  0
M  END
$$$$
