1G9V_ligand
     RDKit          3D

 25 26  0  0  1  0  0  0  0  0999 V2000
    7.7770   23.0073   35.5470 C   0  0  0  0  0  0  0  0  0  0  0  0
    8.3506   22.3354   36.4377 O   0  0  0  0  0  0  0  0  0  0  0  0
    7.4528   24.2086   35.7052 O   0  0  0  0  0  0  0  0  0  0  0  0
    7.4686   22.3180   34.1671 C   0  0  0  0  0  0  0  0  0  0  0  0
    8.7107   22.4866   33.2647 C   0  0  0  0  0  0  0  0  0  0  0  0
    6.2369   22.9199   33.4276 C   0  0  0  0  0  0  0  0  0  0  0  0
    7.3335   20.8850   34.3132 O   0  0  0  0  0  0  0  0  0  0  0  0
    6.2764   20.2520   34.9503 C   0  0  0  0  0  0  0  0  0  0  0  0
    5.3478   20.8784   35.7947 C   0  0  0  0  0  0  0  0  0  0  0  0
    4.3404   20.1396   36.4058 C   0  0  0  0  0  0  0  0  0  0  0  0
    4.2435   18.7674   36.1790 C   0  0  0  0  0  0  0  0  0  0  0  0
    6.1784   18.8752   34.7412 C   0  0  0  0  0  0  0  0  0  0  0  0
    5.1655   18.1342   35.3434 C   0  0  0  0  0  0  0  0  0  0  0  0
    3.1534   17.9578   36.8745 C   0  0  0  0  0  0  0  0  0  0  0  0
    3.6522   17.2066   38.1188 C   0  0  0  0  0  0  0  0  0  0  0  0
    4.6531   17.5894   38.7296 O   0  0  0  0  0  0  0  0  0  0  0  0
    2.8889   16.1652   38.5037 N   0  0  0  0  0  0  0  0  0  0  0  0
    3.1663   15.2368   39.5159 C   0  0  0  0  0  0  0  0  0  0  0  0
    4.4623   14.7678   39.7786 C   0  0  0  0  0  0  0  0  0  0  0  0
    4.6701   13.7694   40.7316 C   0  0  0  0  0  0  0  0  0  0  0  0
    3.5773   13.2296   41.4135 C   0  0  0  0  0  0  0  0  0  0  0  0
    2.0839   14.7069   40.2222 C   0  0  0  0  0  0  0  0  0  0  0  0
    2.2868   13.7109   41.1807 C   0  0  0  0  0  0  0  0  0  0  0  0
    6.0764   13.2706   41.0094 C   0  0  0  0  0  0  0  0  0  0  0  0
    1.1095   13.1263   41.9379 C   0  0  0  0  0  0  0  0  0  0  0  0
  1  2  1  0
  1  3  2  0
  1  4  1  0
  4  5  1  0
  4  6  1  0
  4  7  1  0
  7  8  1  0
  8  9  2  0
  8 12  1  0
  9 10  1  0
 10 11  2  0
 11 13  1  0
 11 14  1  0
 12 13  2  0
 14 15  1  0
 15 16  2  0
 15 17  1  0
 17 18  1  0
 18 19  2  0
 18 22  1  0
 19 20  1  0
 20 21  2  0
 20 24  1  0
 21 23  1  0
 22 23  2  0
 23 25  1  0
M  CHG  1   2  -1
M  END
$$$$
