7F5D_ligand
     RDKit          3D

 21 23  0  0  1  0  0  0  0  0999 V2000
   10.5192   -6.9086   31.4408 C   0  0  0  0  0  0  0  0  0  0  0  0
   11.7868   -6.5437   29.5628 C   0  0  0  0  0  0  0  0  0  0  0  0
    7.4323   -3.7205   25.9694 C   0  0  0  0  0  0  0  0  0  0  0  0
    5.8514   -3.7694   28.4070 C   0  0  0  0  0  0  0  0  0  0  0  0
    4.5852   -4.3580   30.2342 C   0  0  0  0  0  0  0  0  0  0  0  0
    5.6959   -5.0300   30.7775 C   0  0  0  0  0  0  0  0  0  0  0  0
    6.9071   -5.0081   30.0581 C   0  0  0  0  0  0  0  0  0  0  0  0
    8.1800   -5.6591   30.5325 C   0  0  0  0  0  0  0  0  0  0  0  0
    9.3288   -5.6789   29.7195 C   0  0  0  0  0  0  0  0  0  0  0  0
   10.5015   -6.3114   30.1518 C   0  0  0  0  0  0  0  0  0  0  0  0
    9.4077   -6.8806   32.2807 C   0  0  0  0  0  0  0  0  0  0  0  0
    8.2572   -6.2595   31.7984 C   0  0  0  0  0  0  0  0  0  0  0  0
   12.5330   -7.2493   30.4833 C   0  0  0  0  0  0  0  0  0  0  0  0
    3.1057   -4.9046   32.1761 C   0  0  0  0  0  0  0  0  0  0  0  0
    4.6521   -3.7275   29.0333 N   0  0  0  0  0  0  0  0  0  0  0  0
    6.9778   -4.3653   28.8584 N   0  0  0  0  0  0  0  0  0  0  0  0
   11.7742   -7.4577   31.6081 N   0  0  0  0  0  0  0  0  0  0  0  0
    3.3485   -4.2690   30.8897 N   0  0  0  0  0  0  0  0  0  0  0  0
    6.3236   -1.5258   27.1558 O   0  0  0  0  0  0  0  0  0  0  0  0
    4.7584   -3.2293   26.0955 O   0  0  0  0  0  0  0  0  0  0  0  0
    5.9750   -2.9174   26.8496 S   0  0  0  0  0  0  0  0  0  0  0  0
  1 10  2  0
  1 11  1  0
  1 17  1  0
  2 10  1  0
  2 13  2  0
  3 21  1  0
  4 15  2  0
  4 16  1  0
  4 21  1  0
  5  6  2  0
  5 15  1  0
  5 18  1  0
  6  7  1  0
  7  8  1  0
  7 16  2  0
  8  9  2  0
  8 12  1  0
  9 10  1  0
 11 12  2  0
 13 17  1  0
 14 18  1  0
 19 21  2  0
 20 21  2  0
M  END
$$$$
