7SUC_ligand
     RDKit          3D

  7  6  0  0  1  0  0  0  0  0999 V2000
   27.0740   31.8785   -7.1063 C   0  0  0  0  0  0  0  0  0  0  0  0
   26.7413   33.3641   -7.1919 C   0  0  0  0  0  0  0  0  0  0  0  0
   28.4342   31.4028   -8.2265 S   0  0  0  0  0  0  0  0  0  0  0  0
   25.7263   33.9948   -5.7404 S   0  0  0  0  0  0  0  0  0  0  0  0
   24.5585   33.1169   -5.7129 O   0  0  0  0  0  0  0  0  0  0  0  0
   25.4363   35.3794   -6.1234 O   0  0  0  0  0  0  0  0  0  0  0  0
   26.6193   33.8555   -4.5873 O   0  0  0  0  0  0  0  0  0  0  0  0
  1  2  1  0
  1  3  1  0
  2  4  1  0
  4  5  2  0
  4  6  2  0
  4  7  1  0
M  CHG  2   3  -1   7  -1
M  END
$$$$
