7NUT_ligand
     RDKit          3D

 16 16  0  0  1  0  0  0  0  0999 V2000
  -12.2667  -24.2393  -30.9069 C   0  0  1  0  0  0  0  0  0  0  0  0
  -12.0675  -25.1869  -32.1118 C   0  0  1  0  0  0  0  0  0  0  0  0
  -10.6241  -25.7487  -32.1855 C   0  0  2  0  0  0  0  0  0  0  0  0
   -9.5731  -24.6221  -32.0147 C   0  0  1  0  0  0  0  0  0  0  0  0
   -9.9477  -23.7092  -30.8256 C   0  0  1  0  0  0  0  0  0  0  0  0
   -8.9763  -22.5571  -30.5431 C   0  0  0  0  0  0  0  0  0  0  0  0
  -12.1946  -24.9553  -29.7305 O   0  0  0  0  0  0  0  0  0  0  0  0
  -13.0852  -26.3472  -32.0230 N   0  0  0  0  0  0  0  0  0  0  0  0
  -10.3911  -26.4686  -33.3795 O   0  0  0  0  0  0  0  0  0  0  0  0
   -8.2738  -25.1607  -31.8395 O   0  0  0  0  0  0  0  0  0  0  0  0
  -11.2931  -23.2229  -30.9543 O   0  0  0  0  0  0  0  0  0  0  0  0
   -8.6237  -21.8160  -31.6879 O   0  0  0  0  0  0  0  0  0  0  0  0
   -7.5866  -20.4228  -31.4785 P   0  0  0  0  0  0  0  0  0  0  0  0
   -7.2350  -19.9332  -32.8917 O   0  0  0  0  0  0  0  0  0  0  0  0
   -8.4347  -19.4173  -30.6893 O   0  0  0  0  0  0  0  0  0  0  0  0
   -6.3561  -20.9049  -30.6866 O   0  0  0  0  0  0  0  0  0  0  0  0
  1  2  1  0
  1  7  1  1
  1 11  1  0
  2  3  1  0
  2  8  1  1
  3  4  1  0
  3  9  1  6
  4  5  1  0
  4 10  1  1
  5  6  1  6
  5 11  1  0
  6 12  1  0
 12 13  1  0
 13 14  2  0
 13 15  1  0
 13 16  1  0
M  CHG  3   8   1  15  -1  16  -1
M  END
$$$$
