1V48_ligand
     RDKit          3D

 22 23  0  0  1  0  0  0  0  0999 V2000
   72.2635   46.4802   50.1167 N   0  0  0  0  0  0  0  0  0  0  0  0
   71.0340   47.0007   50.2941 C   0  0  0  0  0  0  0  0  0  0  0  0
   70.9800   48.2821   50.0157 N   0  0  0  0  0  0  0  0  0  0  0  0
   72.2321   48.5913   49.6391 C   0  0  0  0  0  0  0  0  0  0  0  0
   72.7652   49.8714   49.2238 C   0  0  0  0  0  0  0  0  0  0  0  0
   72.1725   50.9401   49.1145 O   0  0  0  0  0  0  0  0  0  0  0  0
   74.1041   49.7277   48.9454 N   0  0  0  0  0  0  0  0  0  0  0  0
   74.8657   48.5732   49.0167 C   0  0  0  0  0  0  0  0  0  0  0  0
   76.1572   48.6831   48.6888 N   0  0  0  0  0  0  0  0  0  0  0  0
   74.3791   47.4374   49.3831 N   0  0  0  0  0  0  0  0  0  0  0  0
   73.0519   47.5023   49.6870 C   0  0  0  0  0  0  0  0  0  0  0  0
   72.6842   45.0961   50.3359 C   0  0  0  0  0  0  0  0  0  0  0  0
   73.5009   44.9509   51.6374 C   0  0  0  0  0  0  0  0  0  0  0  0
   74.4012   43.7034   51.6530 C   0  0  0  0  0  0  0  0  0  0  0  0
   73.6631   42.4043   51.2828 C   0  0  0  0  0  0  0  0  0  0  0  0
   74.5397   41.1457   51.3184 C   0  0  0  0  0  0  0  0  0  0  0  0
   74.7742   40.7308   52.5638 F   0  0  0  0  0  0  0  0  0  0  0  0
   75.7108   41.3066   50.6963 F   0  0  0  0  0  0  0  0  0  0  0  0
   73.7322   39.6419   50.4271 P   0  0  0  0  0  0  0  0  0  0  0  0
   72.2685   39.6799   50.9002 O   0  0  0  0  0  0  0  0  0  0  0  0
   73.9326   39.9768   48.9415 O   0  0  0  0  0  0  0  0  0  0  0  0
   74.5418   38.4245   50.9128 O   0  0  0  0  0  0  0  0  0  0  0  0
  1  2  1  0
  1 11  1  0
  1 12  1  0
  2  3  2  0
  3  4  1  0
  4  5  1  0
  4 11  2  0
  5  6  2  0
  5  7  1  0
  7  8  1  0
  8  9  1  0
  8 10  2  0
 10 11  1  0
 12 13  1  0
 13 14  1  0
 14 15  1  0
 15 16  1  0
 16 17  1  0
 16 18  1  0
 16 19  1  0
 19 20  1  0
 19 21  2  0
 19 22  1  0
M  CHG  2  20  -1  22  -1
M  END
$$$$
