1YWR_ligand
     RDKit          3D

 35 39  0  0  1  0  0  0  0  0999 V2000
    5.4076   -0.4889   18.7187 C   0  0  0  0  0  0  0  0  0  0  0  0
    4.5781   -0.7943   16.0688 C   0  0  0  0  0  0  0  0  0  0  0  0
    4.1504   -1.0402   18.4466 C   0  0  0  0  0  0  0  0  0  0  0  0
    6.2550   -0.1245   17.6730 C   0  0  0  0  0  0  0  0  0  0  0  0
    5.8295   -0.2619   16.3538 C   0  0  0  0  0  0  0  0  0  0  0  0
    3.7485   -1.1891   17.1123 C   0  0  0  0  0  0  0  0  0  0  0  0
    3.2650   -1.5018   19.5482 C   0  0  0  0  0  0  0  0  0  0  0  0
    6.6283    0.1358   15.3396 F   0  0  0  0  0  0  0  0  0  0  0  0
    2.1854   -2.9821   20.7884 N   0  0  0  0  0  0  0  0  0  0  0  0
    1.4653   -4.1949   21.2440 C   0  0  0  0  0  0  0  0  0  0  0  0
    1.8699   -1.7287   22.8203 C   0  0  0  0  0  0  0  0  0  0  0  0
    2.8731   -0.8525   20.6674 C   0  0  0  0  0  0  0  0  0  0  0  0
    3.0449    0.5873   20.9848 C   0  0  0  0  0  0  0  0  0  0  0  0
    2.8206   -3.6983   18.6896 O   0  0  0  0  0  0  0  0  0  0  0  0
    2.7655   -2.8587   19.5806 C   0  0  0  0  0  0  0  0  0  0  0  0
    2.0415   -1.7211   21.3669 N   0  0  0  0  0  0  0  0  0  0  0  0
   -0.8013   -5.4188   21.4706 C   0  0  0  0  0  0  0  0  0  0  0  0
    1.3662   -6.7570   21.5340 C   0  0  0  0  0  0  0  0  0  0  0  0
    2.1240   -5.5631   20.9378 C   0  0  0  0  0  0  0  0  0  0  0  0
   -0.0451   -4.1958   20.9299 C   0  0  0  0  0  0  0  0  0  0  0  0
   -0.0908   -6.7153   21.0598 N   0  0  0  0  0  0  0  0  0  0  0  0
    3.2225    0.9117   22.2962 N   0  0  0  0  0  0  0  0  0  0  0  0
    3.1102    2.8958   20.4009 C   0  0  0  0  0  0  0  0  0  0  0  0
    3.3427    2.6438   23.9491 N   0  0  0  0  0  0  0  0  0  0  0  0
    3.0026    1.5698   19.9896 C   0  0  0  0  0  0  0  0  0  0  0  0
    3.2822    2.2347   22.6089 C   0  0  0  0  0  0  0  0  0  0  0  0
    3.2512    3.2430   21.7031 N   0  0  0  0  0  0  0  0  0  0  0  0
    3.2860    1.7359   25.0943 C   0  0  2  0  0  0  0  0  0  0  0  0
    1.9465    1.0062   25.2513 C   0  0  0  0  0  0  0  0  0  0  0  0
    3.6305    2.4874   26.3903 C   0  0  0  0  0  0  0  0  0  0  0  0
   -0.4457   -0.3600   25.6203 C   0  0  0  0  0  0  0  0  0  0  0  0
    1.9172   -0.1803   25.9942 C   0  0  0  0  0  0  0  0  0  0  0  0
    0.7546    1.5150   24.7148 C   0  0  0  0  0  0  0  0  0  0  0  0
   -0.4390    0.8237   24.8891 C   0  0  0  0  0  0  0  0  0  0  0  0
    0.7229   -0.8664   26.1765 C   0  0  0  0  0  0  0  0  0  0  0  0
  1  3  2  0
  1  4  1  0
  2  5  1  0
  2  6  2  0
  3  6  1  0
  3  7  1  0
  4  5  2  0
  5  8  1  0
  7 12  2  0
  7 15  1  0
  9 10  1  0
  9 15  1  0
  9 16  1  0
 10 19  1  0
 10 20  1  0
 11 16  1  0
 12 13  1  0
 12 16  1  0
 13 22  2  0
 13 25  1  0
 14 15  2  0
 17 20  1  0
 17 21  1  0
 18 19  1  0
 18 21  1  0
 22 26  1  0
 23 25  2  0
 23 27  1  0
 24 26  1  0
 24 28  1  0
 26 27  2  0
 28 29  1  0
 28 30  1  1
 29 32  1  0
 29 33  2  0
 31 34  2  0
 31 35  1  0
 32 35  2  0
 33 34  1  0
M  CHG  1  21   1
M  END
$$$$
