1LRH_ligand
     RDKit          3D

 14 15  0  0  1  0  0  0  0  0999 V2000
   36.7134   57.9029   78.4389 C   0  0  0  0  0  0  0  0  0  0  0  0
   36.6648   58.2740   77.0525 C   0  0  0  0  0  0  0  0  0  0  0  0
   37.8250   58.1259   76.2745 C   0  0  0  0  0  0  0  0  0  0  0  0
   39.0172   57.6747   76.8192 C   0  0  0  0  0  0  0  0  0  0  0  0
   39.0910   57.3403   78.1628 C   0  0  0  0  0  0  0  0  0  0  0  0
   37.9553   57.4518   78.9940 C   0  0  0  0  0  0  0  0  0  0  0  0
   38.0339   57.1195   80.3690 C   0  0  0  0  0  0  0  0  0  0  0  0
   36.9085   57.2008   81.1792 C   0  0  0  0  0  0  0  0  0  0  0  0
   35.6910   57.5974   80.6453 C   0  0  0  0  0  0  0  0  0  0  0  0
   35.5836   57.9468   79.3059 C   0  0  0  0  0  0  0  0  0  0  0  0
   35.3279   58.7589   76.4456 C   0  0  0  0  0  0  0  0  0  0  0  0
   35.4896   59.6938   75.2351 C   0  0  0  0  0  0  0  0  0  0  0  0
   35.5261   60.9281   75.4406 O   0  0  0  0  0  0  0  0  0  0  0  0
   35.6185   59.1730   74.1049 O   0  0  0  0  0  0  0  0  0  0  0  0
  1  2  2  0
  1  6  1  0
  1 10  1  0
  2  3  1  0
  2 11  1  0
  3  4  2  0
  4  5  1  0
  5  6  2  0
  6  7  1  0
  7  8  2  0
  8  9  1  0
  9 10  2  0
 11 12  1  0
 12 13  2  0
 12 14  1  0
M  CHG  1  14  -1
M  END
$$$$
