7VWF_ligand
     RDKit          3D

 33 34  0  0  1  0  0  0  0  0999 V2000
   21.7762  -33.4087   14.0845 O   0  0  0  0  0  0  0  0  0  0  0  0
   23.7608  -34.2484   14.5072 O   0  0  0  0  0  0  0  0  0  0  0  0
   22.6283  -34.3141   13.9829 C   0  0  0  0  0  0  0  0  0  0  0  0
   22.2210  -35.5982   13.2135 C   0  0  1  0  0  0  0  0  0  0  0  0
   23.3630  -36.1213   12.2936 C   0  0  0  0  0  0  0  0  0  0  0  0
   23.7480  -35.1459   11.1709 C   0  0  0  0  0  0  0  0  0  0  0  0
   21.6959  -36.6508   14.2273 C   0  0  0  0  0  0  0  0  0  0  0  0
   21.2163  -37.9428   13.5825 C   0  0  0  0  0  0  0  0  0  0  0  0
   20.0098  -37.9673   12.8829 C   0  0  0  0  0  0  0  0  0  0  0  0
   19.5534  -39.1482   12.2923 C   0  0  0  0  0  0  0  0  0  0  0  0
   20.2954  -40.3342   12.4254 C   0  0  0  0  0  0  0  0  0  0  0  0
   21.5222  -40.2935   13.1099 C   0  0  0  0  0  0  0  0  0  0  0  0
   21.9747  -39.1098   13.6869 C   0  0  0  0  0  0  0  0  0  0  0  0
   19.7619  -41.4865   11.8769 O   0  0  0  0  0  0  0  0  0  0  0  0
   20.4011  -42.7363   12.1133 C   0  0  0  0  0  0  0  0  0  0  0  0
   19.4840  -43.8850   11.6680 C   0  0  0  0  0  0  0  0  0  0  0  0
   18.1221  -43.9493   12.3900 C   0  0  0  0  0  0  0  0  0  0  0  0
   18.2316  -44.1728   13.9040 C   0  0  0  0  0  0  0  0  0  0  0  0
   18.2100  -39.1475   11.5767 C   0  0  0  0  0  0  0  0  0  0  0  0
   18.3304  -39.3519   10.1398 N   0  0  0  0  0  0  0  0  0  0  0  0
   17.2915  -39.3589    9.2886 C   0  0  0  0  0  0  0  0  0  0  0  0
   16.1307  -39.1344    9.6341 O   0  0  0  0  0  0  0  0  0  0  0  0
   17.6162  -39.6777    7.8520 C   0  0  0  0  0  0  0  0  0  0  0  0
   18.5282  -40.6920    7.5093 C   0  0  0  0  0  0  0  0  0  0  0  0
   18.7461  -41.0154    6.1734 C   0  0  0  0  0  0  0  0  0  0  0  0
   18.0456  -40.3679    5.1524 C   0  0  0  0  0  0  0  0  0  0  0  0
   17.1437  -39.3544    5.4898 C   0  0  0  0  0  0  0  0  0  0  0  0
   16.9318  -39.0121    6.8252 C   0  0  0  0  0  0  0  0  0  0  0  0
   18.2399  -40.7674    3.6923 C   0  0  0  0  0  0  0  0  0  0  0  0
   19.1973  -41.3957    8.4548 F   0  0  0  0  0  0  0  0  0  0  0  0
   17.1420  -41.3922    3.2709 F   0  0  0  0  0  0  0  0  0  0  0  0
   19.2728  -41.5933    3.5220 F   0  0  0  0  0  0  0  0  0  0  0  0
   18.4423  -39.6869    2.9378 F   0  0  0  0  0  0  0  0  0  0  0  0
  1  3  1  0
  2  3  2  0
  3  4  1  0
  4  5  1  1
  4  7  1  0
  5  6  1  0
  7  8  1  0
  8  9  2  0
  8 13  1  0
  9 10  1  0
 10 11  2  0
 10 19  1  0
 11 12  1  0
 11 14  1  0
 12 13  2  0
 14 15  1  0
 15 16  1  0
 16 17  1  0
 17 18  1  0
 19 20  1  0
 20 21  1  0
 21 22  2  0
 21 23  1  0
 23 24  2  0
 23 28  1  0
 24 25  1  0
 24 30  1  0
 25 26  2  0
 26 27  1  0
 26 29  1  0
 27 28  2  0
 29 31  1  0
 29 32  1  0
 29 33  1  0
M  CHG  1   1  -1
M  END
$$$$
