7T9O_ligand
     RDKit          3D

 41 44  0  0  1  0  0  0  0  0999 V2000
    2.5663   32.7862    7.5149 C   0  0  0  0  0  0  0  0  0  0  0  0
    2.5372   31.4835    8.3520 C   0  0  0  0  0  0  0  0  0  0  0  0
    1.1602   30.7798    8.3294 C   0  0  0  0  0  0  0  0  0  0  0  0
    2.0450   32.4037    6.1042 C   0  0  0  0  0  0  0  0  0  0  0  0
    0.6857   31.6641    6.1324 C   0  0  0  0  0  0  0  0  0  0  0  0
    4.0428   33.2285    7.3895 C   0  0  0  0  0  0  0  0  0  0  0  0
    1.6758   33.8742    8.1602 C   0  0  0  0  0  0  0  0  0  0  0  0
    3.1977   27.8451    4.6622 C   0  0  0  0  0  0  0  0  0  0  0  0
    3.6412   26.6904    3.7453 C   0  0  0  0  0  0  0  0  0  0  0  0
   -2.1868   30.6981    6.7281 C   0  0  0  0  0  0  0  0  0  0  0  0
    2.3987   27.0908    8.2526 C   0  0  0  0  0  0  0  0  0  0  0  0
   -5.1171   36.2772    8.3103 C   0  0  0  0  0  0  0  0  0  0  0  0
   -2.2588   31.2795    7.9958 C   0  0  0  0  0  0  0  0  0  0  0  0
   -4.3129   34.9771    8.4539 C   0  0  0  0  0  0  0  0  0  0  0  0
   -1.4475   29.4173    6.5378 C   0  0  0  0  0  0  0  0  0  0  0  0
   -2.1738   28.2527    6.2257 C   0  0  0  0  0  0  0  0  0  0  0  0
   -1.5341   27.0802    6.1310 N   0  0  0  0  0  0  0  0  0  0  0  0
   -0.2231   26.9100    6.3497 C   0  0  0  0  0  0  0  0  0  0  0  0
    0.5774   28.0310    6.6642 C   0  0  0  0  0  0  0  0  0  0  0  0
   -0.0370   29.3166    6.7141 C   0  0  0  0  0  0  0  0  0  0  0  0
    0.7618   30.4405    6.9528 N   0  0  0  0  0  0  0  0  0  0  0  0
    2.1035   27.8551    6.9194 C   0  0  2  0  0  0  0  0  0  0  0  0
    0.2490   25.4651    6.2330 C   0  0  0  0  0  0  0  0  0  0  0  0
   -3.6796   28.2020    5.9938 C   0  0  0  0  0  0  0  0  0  0  0  0
    3.3288   26.2508    8.2780 O   0  0  0  0  0  0  0  0  0  0  0  0
    2.7265   27.1569    5.8263 O   0  0  0  0  0  0  0  0  0  0  0  0
    1.7126   27.3714    9.2636 O   0  0  0  0  0  0  0  0  0  0  0  0
    2.0916   28.6628    3.9699 C   0  0  0  0  0  0  0  0  0  0  0  0
    4.4006   28.7486    5.0166 C   0  0  0  0  0  0  0  0  0  0  0  0
   -2.9417   32.4750    8.1877 C   0  0  0  0  0  0  0  0  0  0  0  0
   -3.5825   33.1023    7.1089 C   0  0  0  0  0  0  0  0  0  0  0  0
   -3.5287   32.5094    5.8481 C   0  0  0  0  0  0  0  0  0  0  0  0
   -2.8377   31.3171    5.6581 C   0  0  0  0  0  0  0  0  0  0  0  0
   -4.2781   34.2912    7.2042 O   0  0  0  0  0  0  0  0  0  0  0  0
   -4.4858   37.2777    7.3520 C   0  0  0  0  0  0  0  0  0  0  0  0
   -3.6327   38.2714    7.8397 C   0  0  0  0  0  0  0  0  0  0  0  0
   -3.0871   39.2066    6.9648 C   0  0  0  0  0  0  0  0  0  0  0  0
   -3.3880   39.1422    5.6061 C   0  0  0  0  0  0  0  0  0  0  0  0
   -4.2217   38.1409    5.1116 C   0  0  0  0  0  0  0  0  0  0  0  0
   -4.7722   37.2085    5.9863 C   0  0  0  0  0  0  0  0  0  0  0  0
   -2.8675   40.0612    4.7623 F   0  0  0  0  0  0  0  0  0  0  0  0
  1  2  1  0
  1  4  1  0
  1  6  1  0
  1  7  1  0
  2  3  1  0
  3 21  1  0
  4  5  1  0
  5 21  1  0
  8  9  1  0
  8 26  1  0
  8 28  1  0
  8 29  1  0
 10 13  2  0
 10 15  1  0
 10 33  1  0
 11 22  1  0
 11 25  1  0
 11 27  2  0
 12 14  1  0
 12 35  1  0
 13 30  1  0
 14 34  1  0
 15 16  2  0
 15 20  1  0
 16 17  1  0
 16 24  1  0
 17 18  2  0
 18 19  1  0
 18 23  1  0
 19 20  2  0
 19 22  1  0
 20 21  1  0
 22 26  1  6
 30 31  2  0
 31 32  1  0
 31 34  1  0
 32 33  2  0
 35 36  2  0
 35 40  1  0
 36 37  1  0
 37 38  2  0
 38 39  1  0
 38 41  1  0
 39 40  2  0
M  CHG  2  17   1  25  -1
M  END
$$$$
