7MY1_ligand
     RDKit          3D

 14 13  0  0  1  0  0  0  0  0999 V2000
    4.9289   12.3897   13.0382 C   0  0  0  0  0  0  0  0  0  0  0  0
    3.9977   13.3898   13.4034 O   0  0  0  0  0  0  0  0  0  0  0  0
    4.2814   11.3943   12.0538 C   0  0  0  0  0  0  0  0  0  0  0  0
    3.2030   10.4857   12.6345 C   0  0  0  0  0  0  0  0  0  0  0  0
    2.0129   10.3124   12.0333 C   0  0  0  0  0  0  0  0  0  0  0  0
    3.5548    9.7608   13.9204 C   0  0  0  0  0  0  0  0  0  0  0  0
    4.0753   14.0419   14.9950 P   0  0  1  0  0  0  0  0  0  0  0  0
    3.3296   15.3575   14.9457 O   0  0  0  0  0  0  0  0  0  0  0  0
    3.7801   12.9453   15.9909 O   0  0  0  0  0  0  0  0  0  0  0  0
    5.7123   14.4272   15.1264 O   0  0  0  0  0  0  0  0  0  0  0  0
    6.5989   15.9048   14.9908 P   0  0  0  0  0  0  0  0  0  0  0  0
    8.0105   15.4854   14.5494 O   0  0  0  0  0  0  0  0  0  0  0  0
    5.8723   16.7522   13.9232 O   0  0  0  0  0  0  0  0  0  0  0  0
    6.5615   16.5574   16.3795 O   0  0  0  0  0  0  0  0  0  0  0  0
  1  2  1  0
  1  3  1  0
  2  7  1  0
  3  4  1  0
  4  5  2  0
  4  6  1  0
  7  8  2  0
  7  9  1  1
  7 10  1  0
 10 11  1  0
 11 12  1  0
 11 13  2  0
 11 14  1  0
M  CHG  3   9  -1  12  -1  14  -1
M  END
$$$$
