7WCF_ligand
     RDKit          3D

 31 33  0  0  1  0  0  0  0  0999 V2000
    2.4087  -17.9827  -23.3325 P   0  0  1  0  0  0  0  0  0  0  0  0
    2.9472  -17.7064  -21.9475 O   0  0  0  0  0  0  0  0  0  0  0  0
    1.6228  -19.2243  -23.6836 O   0  0  0  0  0  0  0  0  0  0  0  0
    1.4323  -16.6388  -23.7021 O   0  0  0  0  0  0  0  0  0  0  0  0
    4.8238  -18.9336  -25.3330 P   0  0  2  0  0  0  0  0  0  0  0  0
    5.9679  -18.2861  -26.0749 O   0  0  0  0  0  0  0  0  0  0  0  0
    3.9535  -19.9801  -25.9852 O   0  0  0  0  0  0  0  0  0  0  0  0
    3.7030  -17.6375  -24.6274 C   0  0  0  0  0  0  0  0  0  0  0  0
    6.6732  -19.4469  -22.6999 P   0  0  2  0  0  0  0  0  0  0  0  0
    6.0542  -19.3003  -21.3301 O   0  0  0  0  0  0  0  0  0  0  0  0
    7.7487  -18.5238  -23.2185 O   0  0  0  0  0  0  0  0  0  0  0  0
    5.4129  -19.5652  -23.8554 O   0  0  0  0  0  0  0  0  0  0  0  0
    7.2900  -21.0468  -22.8609 O   0  0  0  0  0  0  0  0  0  0  0  0
    6.4494  -22.1340  -22.5187 C   0  0  0  0  0  0  0  0  0  0  0  0
    7.0723  -23.0280  -21.4293 C   0  0  1  0  0  0  0  0  0  0  0  0
    8.3627  -23.4396  -21.8630 O   0  0  0  0  0  0  0  0  0  0  0  0
    7.3615  -22.3772  -20.0803 C   0  0  1  0  0  0  0  0  0  0  0  0
    6.2531  -22.3246  -19.2013 O   0  0  0  0  0  0  0  0  0  0  0  0
    8.5173  -23.2085  -19.5296 C   0  0  1  0  0  0  0  0  0  0  0  0
    8.1549  -24.4446  -18.9293 O   0  0  0  0  0  0  0  0  0  0  0  0
    9.2918  -23.4989  -20.8155 C   0  0  2  0  0  0  0  0  0  0  0  0
   10.4285  -22.5369  -21.0796 N   0  0  0  0  0  0  0  0  0  0  0  0
   10.3875  -21.2913  -21.5917 C   0  0  0  0  0  0  0  0  0  0  0  0
   11.5617  -20.7210  -21.6889 N   0  0  0  0  0  0  0  0  0  0  0  0
   12.4059  -21.6191  -21.1646 C   0  0  0  0  0  0  0  0  0  0  0  0
   13.8062  -21.6046  -20.9943 C   0  0  0  0  0  0  0  0  0  0  0  0
   14.6158  -20.5632  -21.4369 N   0  0  0  0  0  0  0  0  0  0  0  0
   14.3870  -22.6595  -20.3654 N   0  0  0  0  0  0  0  0  0  0  0  0
   13.6015  -23.6609  -19.9532 C   0  0  0  0  0  0  0  0  0  0  0  0
   12.2790  -23.8131  -20.1038 N   0  0  0  0  0  0  0  0  0  0  0  0
   11.7296  -22.7449  -20.7299 C   0  0  0  0  0  0  0  0  0  0  0  0
  1  2  2  0
  1  3  1  1
  1  4  1  0
  1  8  1  0
  5  6  2  0
  5  7  1  6
  5  8  1  0
  5 12  1  0
  9 10  2  0
  9 11  1  6
  9 12  1  0
  9 13  1  0
 13 14  1  0
 15 14  1  6
 15 16  1  0
 15 17  1  0
 16 21  1  0
 17 18  1  1
 17 19  1  0
 19 20  1  6
 19 21  1  0
 21 22  1  6
 22 23  1  0
 22 31  1  0
 23 24  2  0
 24 25  1  0
 25 26  1  0
 25 31  2  0
 26 27  1  0
 26 28  2  0
 28 29  1  0
 29 30  2  0
 30 31  1  0
M  CHG  3   3  -1   7  -1  11  -1
M  END
$$$$
