7KZ9_ligand
     RDKit          3D

 11 10  0  0  1  0  0  0  0  0999 V2000
  -52.9477   48.7616  -20.8935 C   0  0  0  0  0  0  0  0  0  0  0  0
  -53.9336   47.5830  -20.9686 C   0  0  0  0  0  0  0  0  0  0  0  0
  -55.4386   48.1529  -18.9544 C   0  0  0  0  0  0  0  0  0  0  0  0
  -55.6691   47.7217  -17.4965 C   0  0  0  0  0  0  0  0  0  0  0  0
  -57.1525   48.0096  -15.5231 C   0  0  0  0  0  0  0  0  0  0  0  0
  -57.6370   46.5685  -15.2475 C   0  0  0  0  0  0  0  0  0  0  0  0
  -54.4922   47.1904  -19.5921 N   0  0  0  0  0  0  0  0  0  0  0  0
  -56.7273   48.2822  -16.8953 N   0  0  0  0  0  0  0  0  0  0  0  0
  -53.6351   49.9847  -20.8921 O   0  0  0  0  0  0  0  0  0  0  0  0
  -54.9212   46.9295  -16.9175 O   0  0  0  0  0  0  0  0  0  0  0  0
  -58.6558   46.1914  -16.1510 O   0  0  0  0  0  0  0  0  0  0  0  0
  1  2  1  0
  1  9  1  0
  2  7  1  0
  3  4  1  0
  3  7  1  0
  4  8  1  0
  4 10  2  0
  5  6  1  0
  5  8  1  0
  6 11  1  0
M  CHG  1   7   1
M  END
$$$$
