7O1T_ligand
     RDKit          3D

 25 27  0  0  1  0  0  0  0  0999 V2000
   -9.8316    8.1582  -25.9336 N   0  0  0  0  0  0  0  0  0  0  0  0
  -11.6580    9.6239  -26.3952 C   0  0  0  0  0  0  0  0  0  0  0  0
  -12.9476   11.2750  -26.2809 C   0  0  0  0  0  0  0  0  0  0  0  0
   -9.5534    8.9694  -24.9072 C   0  0  0  0  0  0  0  0  0  0  0  0
  -10.9004    8.4704  -26.7145 C   0  0  0  0  0  0  0  0  0  0  0  0
  -10.1801   10.0877  -24.5166 N   0  0  0  0  0  0  0  0  0  0  0  0
  -11.2416   10.3719  -25.3099 C   0  0  0  0  0  0  0  0  0  0  0  0
  -15.0694   18.6474  -24.4639 O   0  0  0  0  0  0  0  0  0  0  0  0
  -15.7033   17.8255  -25.1599 C   0  0  0  0  0  0  0  0  0  0  0  0
  -15.2989   17.4004  -26.2657 O   0  0  0  0  0  0  0  0  0  0  0  0
  -17.0449   17.3178  -24.5760 C   0  0  1  0  0  0  0  0  0  0  0  0
  -17.8949   16.7320  -25.7150 N   0  0  0  0  0  0  0  0  0  0  0  0
  -16.8522   16.2368  -23.4845 C   0  0  0  0  0  0  0  0  0  0  0  0
  -15.9483   14.7134  -23.9515 S   0  0  0  0  0  0  0  0  0  0  0  0
  -14.5767   14.7303  -22.7552 C   0  0  0  0  0  0  0  0  0  0  0  0
  -13.1964   14.2004  -23.1944 C   0  0  1  0  0  0  0  0  0  0  0  0
  -13.2226   12.8622  -23.6645 O   0  0  0  0  0  0  0  0  0  0  0  0
  -12.5795   14.9021  -24.3985 C   0  0  1  0  0  0  0  0  0  0  0  0
  -12.1299   16.2074  -24.0914 O   0  0  0  0  0  0  0  0  0  0  0  0
  -11.4992   13.9270  -24.8815 C   0  0  1  0  0  0  0  0  0  0  0  0
  -10.1920   14.1638  -24.3841 O   0  0  0  0  0  0  0  0  0  0  0  0
  -11.9982   12.6012  -24.2898 C   0  0  2  0  0  0  0  0  0  0  0  0
  -12.0958   11.4374  -25.2521 N   0  0  0  0  0  0  0  0  0  0  0  0
  -12.7446   10.1737  -26.9605 N   0  0  0  0  0  0  0  0  0  0  0  0
  -11.1883    7.6273  -27.7804 N   0  0  0  0  0  0  0  0  0  0  0  0
  1  4  2  0
  1  5  1  0
  2  5  2  0
  2  7  1  0
  2 24  1  0
  3 23  1  0
  3 24  2  0
  4  6  1  0
  5 25  1  0
  6  7  2  0
  7 23  1  0
  8  9  1  0
  9 10  2  0
  9 11  1  0
 11 12  1  6
 11 13  1  0
 13 14  1  0
 14 15  1  0
 16 15  1  6
 16 17  1  0
 16 18  1  0
 17 22  1  0
 18 19  1  1
 18 20  1  0
 20 21  1  1
 20 22  1  0
 22 23  1  6
M  CHG  2   8  -1  12   1
M  END
$$$$
