7RWO_ligand
     RDKit          3D

 20 22  0  0  1  0  0  0  0  0999 V2000
    3.8454    2.3727   -3.0821 N   0  0  0  0  0  0  0  0  0  0  0  0
    3.7325    1.0515   -3.8522 C   0  0  0  0  0  0  0  0  0  0  0  0
    5.0163    0.2334   -3.6140 C   0  0  0  0  0  0  0  0  0  0  0  0
    5.4196    0.1433   -2.1415 C   0  0  0  0  0  0  0  0  0  0  0  0
    6.3034   -0.8546   -1.7173 C   0  0  0  0  0  0  0  0  0  0  0  0
    6.7195   -0.9325   -0.3930 C   0  0  0  0  0  0  0  0  0  0  0  0
    5.5392   -2.1271    2.5331 C   0  0  0  0  0  0  0  0  0  0  0  0
    6.3796   -1.7005    5.2215 C   0  0  0  0  0  0  0  0  0  0  0  0
    6.7368   -0.7719    4.1494 C   0  0  0  0  0  0  0  0  0  0  0  0
    6.3415   -0.9613    2.8582 C   0  0  0  0  0  0  0  0  0  0  0  0
    6.2619   -0.0007    0.5358 C   0  0  0  0  0  0  0  0  0  0  0  0
    5.3892    1.0043    0.1232 C   0  0  0  0  0  0  0  0  0  0  0  0
    4.9315    1.0751   -1.1976 C   0  0  0  0  0  0  0  0  0  0  0  0
    3.8750    2.1193   -1.5641 C   0  0  0  0  0  0  0  0  0  0  0  0
    5.1657   -3.7417    5.7473 C   0  0  0  0  0  0  0  0  0  0  0  0
    6.6828   -0.0492    1.8709 N   0  0  0  0  0  0  0  0  0  0  0  0
    5.1922   -2.9522    3.4528 N   0  0  0  0  0  0  0  0  0  0  0  0
    5.6031   -2.7465    4.7664 N   0  0  0  0  0  0  0  0  0  0  0  0
    6.7404   -1.5473    6.3912 O   0  0  0  0  0  0  0  0  0  0  0  0
    7.7072    0.6396    4.6226 Cl  0  0  0  0  0  0  0  0  0  0  0  0
  1  2  1  0
  1 14  1  0
  2  3  1  0
  3  4  1  0
  4  5  1  0
  4 13  2  0
  5  6  2  0
  6 11  1  0
  7 10  1  0
  7 17  2  0
  8  9  1  0
  8 18  1  0
  8 19  2  0
  9 10  2  0
  9 20  1  0
 10 16  1  0
 11 12  2  0
 11 16  1  0
 12 13  1  0
 13 14  1  0
 15 18  1  0
 17 18  1  0
M  CHG  1   1   1
M  END
$$$$
