8D5D_ligand
     RDKit          3D

 27 27  0  0  1  0  0  0  0  0999 V2000
    1.8410   -7.7622   39.2169 C   0  0  0  0  0  0  0  0  0  0  0  0
    3.2341   -8.2202   38.6475 C   0  0  0  0  0  0  0  0  0  0  0  0
    3.2923   -8.3202   37.1468 C   0  0  0  0  0  0  0  0  0  0  0  0
    2.0874   -8.0108   36.3378 C   0  0  0  0  0  0  0  0  0  0  0  0
    0.9337   -7.6279   36.9348 C   0  0  0  0  0  0  0  0  0  0  0  0
    7.1209   -9.7218   35.2316 C   0  0  0  0  0  0  0  0  0  0  0  0
    4.1610   -8.4447   39.4281 O   0  0  0  0  0  0  0  0  0  0  0  0
    0.4843   -9.3809   32.5524 O   0  0  0  0  0  0  0  0  0  0  0  0
    2.9503   -8.7353   31.9941 O   0  0  0  0  0  0  0  0  0  0  0  0
    2.3715  -11.2324   32.5023 O   0  0  0  0  0  0  0  0  0  0  0  0
    2.3443   -9.4233   34.3999 O   0  0  0  0  0  0  0  0  0  0  0  0
    5.6934   -8.9169   37.1462 N   0  0  0  0  0  0  0  0  0  0  0  0
    1.9072   -9.8294   32.7889 P   0  0  2  0  0  0  0  0  0  0  0  0
    1.7186   -7.6305   40.7038 C   0  0  0  0  0  0  0  0  0  0  0  0
    4.4723   -8.6622   36.5614 C   0  0  0  0  0  0  0  0  0  0  0  0
    2.1023   -8.0908   34.8167 C   0  0  0  0  0  0  0  0  0  0  0  0
    0.8540   -7.5110   38.3831 N   0  0  0  0  0  0  0  0  0  0  0  0
    6.6936   -9.8729   36.7217 C   0  0  1  0  0  0  0  0  0  0  0  0
    6.4360  -11.3715   37.1567 C   0  0  0  0  0  0  0  0  0  0  0  0
    5.3037  -11.6484   37.6120 O   0  0  0  0  0  0  0  0  0  0  0  0
    8.5785  -10.1203   34.9456 C   0  0  0  0  0  0  0  0  0  0  0  0
    9.0287   -9.8207   33.5172 C   0  0  0  0  0  0  0  0  0  0  0  0
   10.4454  -10.1761   33.3530 N   0  0  0  0  0  0  0  0  0  0  0  0
   11.1619  -10.1459   32.2184 C   0  0  0  0  0  0  0  0  0  0  0  0
   12.4507  -10.5009   32.2635 N   0  0  0  0  0  0  0  0  0  0  0  0
   10.6218   -9.7714   31.0510 N   0  0  0  0  0  0  0  0  0  0  0  0
    7.4111  -12.1434   37.0473 O   0  0  0  0  0  0  0  0  0  0  0  0
  1  2  1  0
  1 14  1  0
  1 17  2  0
  2  3  1  0
  2  7  2  0
  3  4  1  0
  3 15  2  0
  4  5  2  0
  4 16  1  0
  5 17  1  0
 18  6  1  6
  6 21  1  0
 13  8  1  1
  9 13  1  0
 10 13  2  0
 11 13  1  0
 11 16  1  0
 12 15  1  0
 12 18  1  0
 18 19  1  0
 19 20  1  0
 19 27  2  0
 21 22  1  0
 22 23  1  0
 23 24  1  0
 24 25  1  0
 24 26  2  0
M  CHG  4   8  -1  17   1  20  -1  26   1
M  END
$$$$
