7L03_ligand
     RDKit          3D

 22 22  0  0  1  0  0  0  0  0999 V2000
  -39.5228   -7.1355   15.0569 C   0  0  0  0  0  0  0  0  0  0  0  0
  -40.8588   -7.2201   15.4773 C   0  0  0  0  0  0  0  0  0  0  0  0
  -41.5677   -6.0669   15.7910 C   0  0  0  0  0  0  0  0  0  0  0  0
  -40.9709   -4.8165   15.6517 C   0  0  0  0  0  0  0  0  0  0  0  0
  -39.6446   -4.7243   15.2305 C   0  0  0  0  0  0  0  0  0  0  0  0
  -38.9235   -5.8803   14.9424 C   0  0  0  0  0  0  0  0  0  0  0  0
  -38.7363   -8.2250   14.7374 O   0  0  0  0  0  0  0  0  0  0  0  0
  -39.3087   -9.5280   14.6484 C   0  0  0  0  0  0  0  0  0  0  0  0
  -39.7762   -9.9557   15.8198 F   0  0  0  0  0  0  0  0  0  0  0  0
  -40.2609   -9.5863   13.7149 F   0  0  0  0  0  0  0  0  0  0  0  0
  -38.3318  -10.3529   14.2861 F   0  0  0  0  0  0  0  0  0  0  0  0
  -41.9294   -3.3433   16.0094 S   0  0  0  0  0  0  0  0  0  0  0  0
  -41.5312   -2.1904   14.7542 N   0  0  0  0  0  0  0  0  0  0  0  0
  -41.8365   -2.5345   13.3561 C   0  0  0  0  0  0  0  0  0  0  0  0
  -41.5825   -1.3126   12.4800 C   0  0  0  0  0  0  0  0  0  0  0  0
  -41.6083   -1.6722   11.1184 O   0  0  0  0  0  0  0  0  0  0  0  0
  -41.3738   -0.4317    9.9084 P   0  0  0  0  0  0  0  0  0  0  0  0
  -42.6873    0.3663    9.8678 O   0  0  0  0  0  0  0  0  0  0  0  0
  -41.0694   -1.1716    8.5959 O   0  0  0  0  0  0  0  0  0  0  0  0
  -40.1944    0.4192   10.3986 O   0  0  0  0  0  0  0  0  0  0  0  0
  -41.4299   -2.7974   17.2727 O   0  0  0  0  0  0  0  0  0  0  0  0
  -43.3433   -3.6907   15.8528 O   0  0  0  0  0  0  0  0  0  0  0  0
  1  2  2  0
  1  6  1  0
  1  7  1  0
  2  3  1  0
  3  4  2  0
  4  5  1  0
  4 12  1  0
  5  6  2  0
  7  8  1  0
  8  9  1  0
  8 10  1  0
  8 11  1  0
 12 13  1  0
 12 21  2  0
 12 22  2  0
 13 14  1  0
 14 15  1  0
 15 16  1  0
 16 17  1  0
 17 18  1  0
 17 19  2  0
 17 20  1  0
M  CHG  2  18  -1  20  -1
M  END
$$$$
