7U0U_ligand
     RDKit          3D

 57 60  0  0  1  0  0  0  0  0999 V2000
  -34.6802  -14.5738  -25.3376 C   0  0  0  0  0  0  0  0  0  0  0  0
  -35.3282  -14.2366  -26.7055 C   0  0  2  0  0  0  0  0  0  0  0  0
  -35.7899  -15.5267  -27.4350 C   0  0  0  0  0  0  0  0  0  0  0  0
  -34.6445  -16.3002  -28.1056 C   0  0  0  0  0  0  0  0  0  0  0  0
  -33.8491  -15.3803  -29.0354 C   0  0  0  0  0  0  0  0  0  0  0  0
  -33.3305  -14.1361  -28.2936 C   0  0  0  0  0  0  0  0  0  0  0  0
  -34.9224  -12.1990  -28.0132 C   0  0  0  0  0  0  0  0  0  0  0  0
  -34.0363  -11.3797  -29.0263 C   0  0  0  0  0  0  0  0  0  0  0  0
  -32.8662  -10.4705  -28.4437 C   0  0  1  0  0  0  0  0  0  0  0  0
  -33.0301   -9.9630  -26.9707 C   0  0  1  0  0  0  0  0  0  0  0  0
  -31.6761   -9.4738  -26.4088 C   0  0  0  0  0  0  0  0  0  0  0  0
  -30.5939  -10.5388  -26.6363 C   0  0  1  0  0  0  0  0  0  0  0  0
  -30.5005  -10.8534  -28.1405 C   0  0  1  0  0  0  0  0  0  0  0  0
  -29.4321  -11.9064  -28.5552 C   0  0  2  0  0  0  0  0  0  0  0  0
  -29.4988  -13.2397  -27.7570 C   0  0  0  0  0  0  0  0  0  0  0  0
  -28.5222  -14.3744  -28.1814 C   0  0  2  0  0  0  0  0  0  0  0  0
  -27.0922  -14.2094  -27.6132 C   0  0  0  0  0  0  0  0  0  0  0  0
  -26.9855  -14.5328  -26.1308 C   0  0  0  0  0  0  0  0  0  0  0  0
  -26.9710  -13.5537  -25.1989 C   0  0  0  0  0  0  0  0  0  0  0  0
  -26.8688  -13.6994  -23.6812 C   0  0  2  0  0  0  0  0  0  0  0  0
  -28.2800  -13.8343  -23.0914 C   0  0  0  0  0  0  0  0  0  0  0  0
  -28.8957  -15.2368  -23.0852 C   0  0  0  0  0  0  0  0  0  0  0  0
  -30.4304  -15.2612  -22.9446 C   0  0  1  0  0  0  0  0  0  0  0  0
  -31.1961  -14.8535  -24.2452 C   0  0  2  0  0  0  0  0  0  0  0  0
  -32.6813  -14.4961  -23.9582 C   0  0  1  0  0  0  0  0  0  0  0  0
  -32.8543  -13.3397  -22.9647 C   0  0  0  0  0  0  0  0  0  0  0  0
  -33.3187  -13.5726  -21.7190 C   0  0  0  0  0  0  0  0  0  0  0  0
  -33.5351  -12.5663  -20.5933 C   0  0  1  0  0  0  0  0  0  0  0  0
  -34.9409  -12.8201  -19.9884 C   0  0  0  0  0  0  0  0  0  0  0  0
  -35.2044  -11.9281  -18.7482 C   0  0  2  0  0  0  0  0  0  0  0  0
  -34.1092  -12.1526  -17.6757 C   0  0  1  0  0  0  0  0  0  0  0  0
  -32.6921  -11.9646  -18.2561 C   0  0  0  0  0  0  0  0  0  0  0  0
  -32.4658  -12.8279  -19.5108 C   0  0  0  0  0  0  0  0  0  0  0  0
  -34.1393   -8.9067  -26.7473 C   0  0  0  0  0  0  0  0  0  0  0  0
  -28.4912  -14.6053  -29.6982 C   0  0  0  0  0  0  0  0  0  0  0  0
  -26.8609  -16.0207  -25.8353 C   0  0  0  0  0  0  0  0  0  0  0  0
  -26.0530  -12.5689  -23.0111 C   0  0  0  0  0  0  0  0  0  0  0  0
  -24.5878  -12.6104  -23.3789 C   0  0  0  0  0  0  0  0  0  0  0  0
  -23.6001  -12.9062  -22.5261 C   0  0  0  0  0  0  0  0  0  0  0  0
  -31.0594  -15.9357  -25.3448 C   0  0  0  0  0  0  0  0  0  0  0  0
  -32.4472  -11.9642  -23.4770 C   0  0  0  0  0  0  0  0  0  0  0  0
  -29.0718  -10.5142  -24.8134 C   0  0  0  0  0  0  0  0  0  0  0  0
  -27.7163  -10.6004  -29.6272 C   0  0  0  0  0  0  0  0  0  0  0  0
  -37.6120  -11.7445  -18.8805 C   0  0  0  0  0  0  0  0  0  0  0  0
  -34.4868  -13.4475  -27.6618 N   0  0  0  0  0  0  0  0  0  0  0  0
  -33.3777  -14.2220  -25.1839 O   0  0  0  0  0  0  0  0  0  0  0  0
  -35.3511  -15.1445  -24.4781 O   0  0  0  0  0  0  0  0  0  0  0  0
  -35.9290  -11.6451  -27.5730 O   0  0  0  0  0  0  0  0  0  0  0  0
  -34.2534  -11.4994  -30.2328 O   0  0  0  0  0  0  0  0  0  0  0  0
  -31.7744  -11.3510  -28.5538 O   0  0  0  0  0  0  0  0  0  0  0  0
  -32.7250   -9.3710  -29.2617 O   0  0  0  0  0  0  0  0  0  0  0  0
  -29.3389  -10.0995  -26.1405 O   0  0  0  0  0  0  0  0  0  0  0  0
  -28.1161  -11.3567  -28.4871 O   0  0  0  0  0  0  0  0  0  0  0  0
  -28.8862  -12.8642  -22.6343 O   0  0  0  0  0  0  0  0  0  0  0  0
  -30.7851  -16.5654  -22.5393 O   0  0  0  0  0  0  0  0  0  0  0  0
  -36.4759  -12.2048  -18.1586 O   0  0  0  0  0  0  0  0  0  0  0  0
  -34.2989  -11.3203  -16.5490 O   0  0  0  0  0  0  0  0  0  0  0  0
  1  2  1  0
  1 46  1  0
  1 47  2  0
  2  3  1  6
  2 45  1  0
  3  4  1  0
  4  5  1  0
  5  6  1  0
  6 45  1  0
  7  8  1  0
  7 45  1  0
  7 48  2  0
  8  9  1  0
  8 49  2  0
  9 10  1  0
  9 50  1  0
  9 51  1  6
 10 11  1  0
 10 34  1  6
 11 12  1  0
 12 13  1  0
 12 52  1  6
 13 14  1  0
 13 50  1  1
 14 15  1  0
 14 53  1  1
 15 16  1  0
 16 17  1  0
 16 35  1  6
 17 18  1  0
 18 19  2  0
 18 36  1  0
 19 20  1  0
 20 21  1  0
 20 37  1  1
 21 22  1  0
 21 54  2  0
 22 23  1  0
 23 24  1  0
 23 55  1  6
 24 25  1  0
 24 40  1  6
 25 26  1  1
 25 46  1  0
 26 27  2  0
 26 41  1  0
 28 27  1  6
 28 29  1  0
 28 33  1  0
 29 30  1  0
 30 31  1  0
 30 56  1  1
 31 32  1  0
 31 57  1  1
 32 33  1  0
 37 38  1  0
 38 39  2  0
 42 52  1  0
 43 53  1  0
 44 56  1  0
M  END
$$$$
