7UQ3_ligand
     RDKit          3D

 12 12  0  0  1  0  0  0  0  0999 V2000
    9.2001  141.5931  101.8226 C   0  0  0  0  0  0  0  0  0  0  0  0
    8.6700  142.5046  100.7260 C   0  0  2  0  0  0  0  0  0  0  0  0
    7.1180  142.3990  100.6429 C   0  0  0  0  0  0  0  0  0  0  0  0
    6.4437  143.3207   99.6061 C   0  0  0  0  0  0  0  0  0  0  0  0
    9.4496  142.0695   99.5024 C   0  0  0  0  0  0  0  0  0  0  0  0
   10.5670  141.1964  100.0273 C   0  0  0  0  0  0  0  0  0  0  0  0
   10.3447  141.0634  101.3488 N   0  0  0  0  0  0  0  0  0  0  0  0
   11.1160  140.2919  102.1098 O   0  0  0  0  0  0  0  0  0  0  0  0
    5.2009  143.4196   99.6865 O   0  0  0  0  0  0  0  0  0  0  0  0
    7.1303  143.9041   98.7388 O   0  0  0  0  0  0  0  0  0  0  0  0
   11.4772  140.7268   99.3518 O   0  0  0  0  0  0  0  0  0  0  0  0
    8.6913  141.4166  102.9273 O   0  0  0  0  0  0  0  0  0  0  0  0
  1  2  1  0
  1  7  1  0
  1 12  2  0
  2  3  1  6
  2  5  1  0
  3  4  1  0
  4  9  1  0
  4 10  2  0
  5  6  1  0
  6  7  1  0
  6 11  2  0
  7  8  1  0
M  CHG  2   8  -1   9  -1
M  END
$$$$
