1N2J_ligand
     RDKit          3D

 10  9  0  0  1  0  0  0  0  0999 V2000
   33.8458   33.3436   44.9638 O   0  0  0  0  0  0  0  0  0  0  0  0
   33.4622   34.1881   45.8086 C   0  0  0  0  0  0  0  0  0  0  0  0
   33.0956   35.3384   45.4843 O   0  0  0  0  0  0  0  0  0  0  0  0
   33.4910   33.8365   47.3374 C   0  0  2  0  0  0  0  0  0  0  0  0
   34.2044   32.6254   47.5747 O   0  0  0  0  0  0  0  0  0  0  0  0
   32.0796   33.7826   48.0554 C   0  0  0  0  0  0  0  0  0  0  0  0
   31.3110   35.1289   47.9620 C   0  0  0  0  0  0  0  0  0  0  0  0
   31.1813   32.6784   47.4424 C   0  0  0  0  0  0  0  0  0  0  0  0
   32.2508   33.4629   49.5711 C   0  0  0  0  0  0  0  0  0  0  0  0
   33.0589   34.4155   50.2355 O   0  0  0  0  0  0  0  0  0  0  0  0
  1  2  1  0
  2  3  2  0
  2  4  1  0
  4  5  1  6
  4  6  1  0
  6  7  1  0
  6  8  1  0
  6  9  1  0
  9 10  1  0
M  CHG  1   1  -1
M  END
$$$$
