7PGX_ligand
     RDKit          3D

 31 33  0  0  1  0  0  0  0  0999 V2000
  -20.7118    0.7905   -5.8560 N   0  0  0  0  0  0  0  0  0  0  0  0
  -20.9381   -0.4834   -5.2971 C   0  0  0  0  0  0  0  0  0  0  0  0
  -22.0214   -1.0046   -5.0550 O   0  0  0  0  0  0  0  0  0  0  0  0
  -19.8361   -1.2363   -4.9723 N   0  0  0  0  0  0  0  0  0  0  0  0
  -18.5102   -0.9364   -5.1322 C   0  0  0  0  0  0  0  0  0  0  0  0
  -17.6363   -1.7240   -4.7737 O   0  0  0  0  0  0  0  0  0  0  0  0
  -18.2732    0.3732   -5.7547 C   0  0  0  0  0  0  0  0  0  0  0  0
  -17.0674    0.7399   -5.9777 N   0  0  0  0  0  0  0  0  0  0  0  0
  -16.8423    2.0299   -6.5016 C   0  0  0  0  0  0  0  0  0  0  0  0
  -15.5153    2.4197   -6.6740 C   0  0  0  0  0  0  0  0  0  0  0  0
  -15.2011    3.7009   -7.1362 C   0  0  0  0  0  0  0  0  0  0  0  0
  -13.7422    4.1224   -7.1915 C   0  0  0  0  0  0  0  0  0  0  0  0
  -16.2341    4.5716   -7.5212 C   0  0  0  0  0  0  0  0  0  0  0  0
  -15.9659    5.9578   -8.0830 C   0  0  0  0  0  0  0  0  0  0  0  0
  -17.5608    4.1797   -7.3585 C   0  0  0  0  0  0  0  0  0  0  0  0
  -17.8862    2.9301   -6.8199 C   0  0  0  0  0  0  0  0  0  0  0  0
  -19.2303    2.5081   -6.5580 N   0  0  0  0  0  0  0  0  0  0  0  0
  -19.5109    1.2168   -6.0673 C   0  0  0  0  0  0  0  0  0  0  0  0
  -20.3392    3.4505   -6.7686 C   0  0  0  0  0  0  0  0  0  0  0  0
  -20.9797    3.4631   -8.1839 C   0  0  2  0  0  0  0  0  0  0  0  0
  -20.0026    3.4581   -9.2099 O   0  0  0  0  0  0  0  0  0  0  0  0
  -21.8803    4.7102   -8.3904 C   0  0  2  0  0  0  0  0  0  0  0  0
  -21.1271    5.8839   -8.1266 O   0  0  0  0  0  0  0  0  0  0  0  0
  -23.1577    4.7026   -7.5136 C   0  0  2  0  0  0  0  0  0  0  0  0
  -24.0360    3.6959   -7.9694 O   0  0  0  0  0  0  0  0  0  0  0  0
  -23.8829    6.0614   -7.4345 C   0  0  0  0  0  0  0  0  0  0  0  0
  -23.9920    6.6921   -8.6983 O   0  0  0  0  0  0  0  0  0  0  0  0
  -25.3413    6.3758   -9.7621 P   0  0  0  0  0  0  0  0  0  0  0  0
  -25.3323    4.8630  -10.0261 O   0  0  0  0  0  0  0  0  0  0  0  0
  -25.0800    7.1942  -11.0359 O   0  0  0  0  0  0  0  0  0  0  0  0
  -26.5892    6.8475   -9.0009 O   0  0  0  0  0  0  0  0  0  0  0  0
  1  2  1  0
  1 18  2  0
  2  3  2  0
  2  4  1  0
  4  5  1  0
  5  6  2  0
  5  7  1  0
  7  8  2  0
  7 18  1  0
  8  9  1  0
  9 10  1  0
  9 16  2  0
 10 11  2  0
 11 12  1  0
 11 13  1  0
 13 14  1  0
 13 15  2  0
 15 16  1  0
 16 17  1  0
 17 18  1  0
 17 19  1  0
 19 20  1  0
 20 21  1  6
 20 22  1  0
 22 23  1  1
 22 24  1  0
 24 25  1  6
 24 26  1  0
 26 27  1  0
 27 28  1  0
 28 29  2  0
 28 30  1  0
 28 31  1  0
M  CHG  2  30  -1  31  -1
M  END
$$$$
