7LZQ_ligand
     RDKit          3D

 22 24  0  0  1  0  0  0  0  0999 V2000
  -16.5948    0.4369  -18.6718 C   0  0  0  0  0  0  0  0  0  0  0  0
  -16.4633   -1.0545  -16.3722 C   0  0  0  0  0  0  0  0  0  0  0  0
  -13.0857   -2.6828  -10.6641 C   0  0  0  0  0  0  0  0  0  0  0  0
  -12.9466   -2.1770  -11.8992 C   0  0  0  0  0  0  0  0  0  0  0  0
  -10.6404   -4.5316  -13.3425 C   0  0  0  0  0  0  0  0  0  0  0  0
  -15.3417    0.2030  -18.1015 C   0  0  0  0  0  0  0  0  0  0  0  0
  -12.0646   -2.9090  -12.7788 C   0  0  0  0  0  0  0  0  0  0  0  0
  -11.7163   -2.7057  -14.0933 N   0  0  0  0  0  0  0  0  0  0  0  0
  -12.1777   -1.6225  -14.9535 C   0  0  0  0  0  0  0  0  0  0  0  0
  -13.6224   -1.7423  -15.4637 C   0  0  0  0  0  0  0  0  0  0  0  0
  -14.3492   -2.6549  -15.0674 O   0  0  0  0  0  0  0  0  0  0  0  0
  -12.7226   -4.2415   -8.7935 C   0  0  0  0  0  0  0  0  0  0  0  0
  -17.6712   -0.7648  -17.0067 C   0  0  0  0  0  0  0  0  0  0  0  0
  -10.8642   -3.7241  -14.4472 C   0  0  0  0  0  0  0  0  0  0  0  0
  -11.5529   -4.5493  -10.9025 C   0  0  0  0  0  0  0  0  0  0  0  0
  -15.2645   -0.5675  -16.9254 C   0  0  0  0  0  0  0  0  0  0  0  0
  -11.4176   -4.0505  -12.2787 C   0  0  0  0  0  0  0  0  0  0  0  0
  -17.7515   -0.0319  -18.1435 N   0  0  0  0  0  0  0  0  0  0  0  0
  -13.9989   -0.7846  -16.3393 N   0  0  0  0  0  0  0  0  0  0  0  0
  -12.4764   -3.8147  -10.1746 N   0  0  0  0  0  0  0  0  0  0  0  0
  -10.9273   -5.5051  -10.4369 O   0  0  0  0  0  0  0  0  0  0  0  0
  -13.9487    0.8878  -18.8652 Cl  0  0  0  0  0  0  0  0  0  0  0  0
  1  6  2  0
  1 18  1  0
  2 13  1  0
  2 16  2  0
  3  4  2  0
  3 20  1  0
  4  7  1  0
  5 14  2  0
  5 17  1  0
  6 16  1  0
  6 22  1  0
  7  8  1  0
  7 17  2  0
  8  9  1  0
  8 14  1  0
  9 10  1  0
 10 11  2  0
 10 19  1  0
 12 20  1  0
 13 18  2  0
 15 17  1  0
 15 20  1  0
 15 21  2  0
 16 19  1  0
M  END
$$$$
