6M73_ligand
     RDKit          3D

 31 33  0  0  1  0  0  0  0  0999 V2000
   28.0285    9.6097   36.6365 C   0  0  0  0  0  0  0  0  0  0  0  0
   28.2283    9.4338   38.0496 N   0  0  0  0  0  0  0  0  0  0  0  0
   29.5469    9.5202   38.5337 C   0  0  0  0  0  0  0  0  0  0  0  0
   29.7312    9.5426   39.8917 N   0  0  0  0  0  0  0  0  0  0  0  0
   30.9451    9.7386   40.4785 C   0  0  0  0  0  0  0  0  0  0  0  0
   31.0812    9.9057   41.6857 O   0  0  0  0  0  0  0  0  0  0  0  0
   31.9810    9.8023   39.5881 N   0  0  0  0  0  0  0  0  0  0  0  0
   31.9627    9.7333   38.2270 C   0  0  0  0  0  0  0  0  0  0  0  0
   32.9954    9.8201   37.5678 O   0  0  0  0  0  0  0  0  0  0  0  0
   30.6128    9.5820   37.6965 C   0  0  0  0  0  0  0  0  0  0  0  0
   30.4380    9.5410   36.3345 N   0  0  0  0  0  0  0  0  0  0  0  0
   29.1537    9.6121   35.7747 C   0  0  0  0  0  0  0  0  0  0  0  0
   29.0051    9.7219   34.3948 C   0  0  0  0  0  0  0  0  0  0  0  0
   27.7412    9.8962   33.8323 C   0  0  0  0  0  0  0  0  0  0  0  0
   27.6380   10.0751   32.3240 C   0  0  0  0  0  0  0  0  0  0  0  0
   26.6130    9.9440   34.6677 C   0  0  0  0  0  0  0  0  0  0  0  0
   25.2139   10.1541   34.1083 C   0  0  0  0  0  0  0  0  0  0  0  0
   26.7646    9.7792   36.0485 C   0  0  0  0  0  0  0  0  0  0  0  0
   27.0911    9.6723   38.9605 C   0  0  0  0  0  0  0  0  0  0  0  0
   26.7461   11.1642   39.2081 C   0  0  2  0  0  0  0  0  0  0  0  0
   27.7604   11.8104   39.9552 O   0  0  0  0  0  0  0  0  0  0  0  0
   25.3862   11.3735   39.9241 C   0  0  2  0  0  0  0  0  0  0  0  0
   25.3449   10.6508   41.1486 O   0  0  0  0  0  0  0  0  0  0  0  0
   24.1350   11.0257   39.0709 C   0  0  2  0  0  0  0  0  0  0  0  0
   24.2611   11.5576   37.7658 O   0  0  0  0  0  0  0  0  0  0  0  0
   22.8374   11.5713   39.6971 C   0  0  0  0  0  0  0  0  0  0  0  0
   21.6913   11.0378   39.0672 O   0  0  0  0  0  0  0  0  0  0  0  0
   20.8551   11.8602   37.7664 P   0  0  0  0  0  0  0  0  0  0  0  0
   19.5444   11.0780   37.5865 O   0  0  0  0  0  0  0  0  0  0  0  0
   21.7698   11.7694   36.5360 O   0  0  0  0  0  0  0  0  0  0  0  0
   20.6118   13.3065   38.2304 O   0  0  0  0  0  0  0  0  0  0  0  0
  1  2  1  0
  1 12  2  0
  1 18  1  0
  2  3  1  0
  2 19  1  0
  3  4  1  0
  3 10  2  0
  4  5  1  0
  5  6  2  0
  5  7  1  0
  7  8  1  0
  8  9  2  0
  8 10  1  0
 10 11  1  0
 11 12  1  0
 12 13  1  0
 13 14  2  0
 14 15  1  0
 14 16  1  0
 16 17  1  0
 16 18  2  0
 19 20  1  0
 20 21  1  1
 20 22  1  0
 22 23  1  1
 22 24  1  0
 24 25  1  6
 24 26  1  0
 26 27  1  0
 27 28  1  0
 28 29  1  0
 28 30  2  0
 28 31  1  0
M  CHG  2  29  -1  31  -1
M  END
$$$$
