7UY4_ligand
     RDKit          3D

 24 26  0  0  1  0  0  0  0  0999 V2000
    2.2312  -46.9716   52.9625 O   0  0  0  0  0  0  0  0  0  0  0  0
    3.4743  -47.1868   53.6353 C   0  0  2  0  0  0  0  0  0  0  0  0
    4.4465  -47.8745   52.6698 C   0  0  0  0  0  0  0  0  0  0  0  0
    3.2550  -48.0187   54.9163 C   0  0  0  0  0  0  0  0  0  0  0  0
    2.2257  -47.3675   55.8628 C   0  0  0  0  0  0  0  0  0  0  0  0
    0.9467  -47.0240   55.0406 C   0  0  1  0  0  0  0  0  0  0  0  0
    0.1374  -46.1825   55.7801 O   0  0  0  0  0  0  0  0  0  0  0  0
    1.2718  -46.2779   53.7180 C   0  0  2  0  0  0  0  0  0  0  0  0
    0.3098  -48.2543   54.7535 O   0  0  0  0  0  0  0  0  0  0  0  0
    0.1177  -46.1445   52.9226 O   0  0  0  0  0  0  0  0  0  0  0  0
   -0.8731  -48.1046   53.9620 C   0  0  2  0  0  0  0  0  0  0  0  0
   -1.5325  -49.4780   53.6973 C   0  0  1  0  0  0  0  0  0  0  0  0
   -1.9222  -50.1089   55.0534 N   0  0  0  0  0  0  0  0  0  0  0  0
   -2.3380  -51.5847   54.9988 C   0  0  0  0  0  0  0  0  0  0  0  0
   -2.7634  -49.3774   52.7470 C   0  0  1  0  0  0  0  0  0  0  0  0
   -3.9058  -48.8261   53.3932 O   0  0  0  0  0  0  0  0  0  0  0  0
   -2.3906  -48.5944   51.4480 C   0  0  1  0  0  0  0  0  0  0  0  0
   -3.6321  -48.3919   50.5550 N   0  0  0  0  0  0  0  0  0  0  0  0
   -4.2838  -49.6783   50.0284 C   0  0  0  0  0  0  0  0  0  0  0  0
   -1.7541  -47.2057   51.7627 C   0  0  2  0  0  0  0  0  0  0  0  0
   -1.4068  -46.4280   50.6289 O   0  0  0  0  0  0  0  0  0  0  0  0
   -0.5005  -47.4068   52.6391 C   0  0  1  0  0  0  0  0  0  0  0  0
    1.9561  -48.2505   56.9347 O   0  0  0  0  0  0  0  0  0  0  0  0
    2.8457  -46.2185   56.4142 O   0  0  0  0  0  0  0  0  0  0  0  0
  1  2  1  0
  8  1  1  6
  2  3  1  6
  2  4  1  0
  4  5  1  0
  5  6  1  0
  5 23  1  0
  5 24  1  0
  6  7  1  1
  6  8  1  0
  6  9  1  0
  8 10  1  0
 11  9  1  1
 22 10  1  1
 11 12  1  0
 11 22  1  0
 12 13  1  1
 12 15  1  0
 13 14  1  0
 15 16  1  1
 15 17  1  0
 17 18  1  6
 17 20  1  0
 18 19  1  0
 20 21  1  6
 20 22  1  0
M  CHG  2  13   1  18   1
M  END
$$$$
