7MAE_ligand
     RDKit          3D

 49 52  0  0  1  0  0  0  0  0999 V2000
   20.4309   -0.3903   15.4178 C   0  0  1  0  0  0  0  0  0  0  0  0
   20.2119    0.0175   16.8964 C   0  0  2  0  0  0  0  0  0  0  0  0
   22.1488    0.5114   18.4445 C   0  0  0  0  0  0  0  0  0  0  0  0
   23.9293    1.5581   19.7422 C   0  0  1  0  0  0  0  0  0  0  0  0
   25.2655    2.1164   19.2724 C   0  0  0  0  0  0  0  0  0  0  0  0
   24.0360    3.8710   20.2305 C   0  0  1  0  0  0  0  0  0  0  0  0
   21.7090    3.9367   19.9094 C   0  0  0  0  0  0  0  0  0  0  0  0
   18.8704    0.7674   17.1439 C   0  0  0  0  0  0  0  0  0  0  0  0
   15.4479   -5.3865   13.6456 C   0  0  0  0  0  0  0  0  0  0  0  0
   15.4004   -4.0122   13.8747 C   0  0  0  0  0  0  0  0  0  0  0  0
   16.3034   -3.4203   14.7496 C   0  0  0  0  0  0  0  0  0  0  0  0
   17.2570   -4.2078   15.3894 C   0  0  0  0  0  0  0  0  0  0  0  0
   17.3108   -5.5837   15.1563 C   0  0  0  0  0  0  0  0  0  0  0  0
   16.4017   -6.1759   14.2846 C   0  0  0  0  0  0  0  0  0  0  0  0
   20.4881   -3.7945   14.6900 C   0  0  0  0  0  0  0  0  0  0  0  0
   19.4911   -1.4681   14.8350 C   0  0  0  0  0  0  0  0  0  0  0  0
   23.5027    2.5746   20.8059 C   0  0  1  0  0  0  0  0  0  0  0  0
   22.0273    2.8985   20.9778 C   0  0  0  0  0  0  0  0  0  0  0  0
   18.6489    1.1384   18.6035 C   0  0  0  0  0  0  0  0  0  0  0  0
   18.6532    2.4790   18.9896 C   0  0  0  0  0  0  0  0  0  0  0  0
   18.5353    2.8162   20.3337 C   0  0  0  0  0  0  0  0  0  0  0  0
   18.4258    1.8199   21.3010 C   0  0  0  0  0  0  0  0  0  0  0  0
   18.3633    0.4766   20.9016 C   0  0  0  0  0  0  0  0  0  0  0  0
   18.4777    0.1368   19.5594 C   0  0  0  0  0  0  0  0  0  0  0  0
   22.6150   -5.9572   14.0421 C   0  0  0  0  0  0  0  0  0  0  0  0
   21.9957   -3.4739   14.5702 C   0  0  2  0  0  0  0  0  0  0  0  0
   22.7057   -4.4762   13.6298 C   0  0  0  0  0  0  0  0  0  0  0  0
   22.6913   -3.3828   15.9472 C   0  0  0  0  0  0  0  0  0  0  0  0
   18.6690    1.2729   23.6295 C   0  0  0  0  0  0  0  0  0  0  0  0
   17.4123    4.3863   24.7385 C   0  0  0  0  0  0  0  0  0  0  0  0
   19.2638   -0.1238   26.4806 C   0  0  0  0  0  0  0  0  0  0  0  0
   15.9949    4.9468   24.8845 C   0  0  0  0  0  0  0  0  0  0  0  0
   18.3788   -1.3495   26.7100 C   0  0  0  0  0  0  0  0  0  0  0  0
   19.7026   -2.7970   15.4632 N   0  0  0  0  0  0  0  0  0  0  0  0
   21.3538    0.8260   17.3540 N   0  0  0  0  0  0  0  0  0  0  0  0
   14.5327   -5.9728   12.7753 N   0  0  0  0  0  0  0  0  0  0  0  0
   17.7376   -2.3168   17.1537 O   0  0  0  0  0  0  0  0  0  0  0  0
   19.0119   -4.5084   17.3090 O   0  0  0  0  0  0  0  0  0  0  0  0
   20.3422    0.7493   14.6015 O   0  0  0  0  0  0  0  0  0  0  0  0
   22.0493   -0.4886   19.1580 O   0  0  0  0  0  0  0  0  0  0  0  0
   23.0545    1.4985   18.6093 O   0  0  0  0  0  0  0  0  0  0  0  0
   25.1130    3.5261   19.4082 O   0  0  0  0  0  0  0  0  0  0  0  0
   22.9754    4.4687   19.5508 O   0  0  0  0  0  0  0  0  0  0  0  0
   18.4026    2.2341   22.6158 O   0  0  0  0  0  0  0  0  0  0  0  0
   17.4280    3.0650   25.2457 O   0  0  0  0  0  0  0  0  0  0  0  0
   18.4166    0.9926   26.2934 O   0  0  0  0  0  0  0  0  0  0  0  0
   20.0470    2.9050   25.5417 O   0  0  0  0  0  0  0  0  0  0  0  0
   18.7896    2.1675   25.2292 P   0  0  0  0  0  0  0  0  0  0  0  0
   18.4227   -3.4381   16.5026 S   0  0  0  0  0  0  0  0  0  0  0  0
  1  2  1  0
  1 16  1  0
  1 39  1  6
  2  8  1  6
  2 35  1  0
  3 35  1  0
  3 40  2  0
  3 41  1  0
  4  5  1  0
  4 17  1  0
  4 41  1  6
  5 42  1  0
  6 17  1  0
  6 42  1  6
  6 43  1  0
  7 18  1  0
  7 43  1  0
  8 19  1  0
  9 10  2  0
  9 14  1  0
  9 36  1  0
 10 11  1  0
 11 12  2  0
 12 13  1  0
 12 49  1  0
 13 14  2  0
 15 26  1  0
 15 34  1  0
 16 34  1  0
 17 18  1  6
 19 20  2  0
 19 24  1  0
 20 21  1  0
 21 22  2  0
 22 23  1  0
 22 44  1  0
 23 24  2  0
 25 27  1  0
 26 27  1  0
 26 28  1  1
 29 44  1  0
 29 48  1  0
 30 32  1  0
 30 45  1  0
 31 33  1  0
 31 46  1  0
 34 49  1  0
 37 49  2  0
 38 49  2  0
 45 48  1  0
 46 48  1  0
 47 48  2  0
M  END
$$$$
