7OMJ_ligand
     RDKit          3D

 32 34  0  0  1  0  0  0  0  0999 V2000
    7.8828  -12.6382   28.1511 P   0  0  0  0  0  0  0  0  0  0  0  0
    9.3594  -12.7920   27.7459 O   0  0  0  0  0  0  0  0  0  0  0  0
    7.6303  -11.6943   29.3404 O   0  0  0  0  0  0  0  0  0  0  0  0
    7.0954  -13.9559   28.2141 O   0  0  0  0  0  0  0  0  0  0  0  0
    7.0753  -11.7279   26.6876 C   0  0  0  0  0  0  0  0  0  0  0  0
    5.6605  -10.5381   26.9628 P   0  0  1  0  0  0  0  0  0  0  0  0
    4.5549  -11.2449   27.7074 O   0  0  0  0  0  0  0  0  0  0  0  0
    6.1869   -9.1816   27.3708 O   0  0  0  0  0  0  0  0  0  0  0  0
    5.0952  -10.4066   25.3722 O   0  0  0  0  0  0  0  0  0  0  0  0
    5.4168   -9.8086   23.8232 P   0  0  1  0  0  0  0  0  0  0  0  0
    4.3611   -8.7830   23.4834 O   0  0  0  0  0  0  0  0  0  0  0  0
    6.9039   -9.5725   23.6747 O   0  0  0  0  0  0  0  0  0  0  0  0
    5.0249  -11.3011   23.0674 O   0  0  0  0  0  0  0  0  0  0  0  0
    3.6594  -11.6976   23.0653 C   0  0  0  0  0  0  0  0  0  0  0  0
    3.0647  -11.5670   21.6566 C   0  0  1  0  0  0  0  0  0  0  0  0
    2.9107  -10.2048   21.3241 O   0  0  0  0  0  0  0  0  0  0  0  0
    3.9246  -12.1020   20.5195 C   0  0  1  0  0  0  0  0  0  0  0  0
    3.7752  -13.5035   20.3913 O   0  0  0  0  0  0  0  0  0  0  0  0
    3.4903  -11.2855   19.3010 C   0  0  1  0  0  0  0  0  0  0  0  0
    2.4478  -11.8590   18.5336 O   0  0  0  0  0  0  0  0  0  0  0  0
    2.9803   -9.9876   19.9485 C   0  0  2  0  0  0  0  0  0  0  0  0
    3.8154   -8.7561   19.6968 N   0  0  0  0  0  0  0  0  0  0  0  0
    5.0239   -8.4334   20.2020 C   0  0  0  0  0  0  0  0  0  0  0  0
    5.4571   -7.2564   19.8169 N   0  0  0  0  0  0  0  0  0  0  0  0
    4.4987   -6.8172   18.9858 C   0  0  0  0  0  0  0  0  0  0  0  0
    4.4113   -5.5512   18.2894 C   0  0  0  0  0  0  0  0  0  0  0  0
    5.1747   -4.5885   18.3558 O   0  0  0  0  0  0  0  0  0  0  0  0
    3.2804   -5.5538   17.5081 N   0  0  0  0  0  0  0  0  0  0  0  0
    2.3228   -6.5516   17.3970 C   0  0  0  0  0  0  0  0  0  0  0  0
    1.2996   -6.3096   16.5685 N   0  0  0  0  0  0  0  0  0  0  0  0
    2.3898   -7.6570   18.0567 N   0  0  0  0  0  0  0  0  0  0  0  0
    3.5003   -7.7405   18.8455 C   0  0  0  0  0  0  0  0  0  0  0  0
  1  2  2  0
  1  3  1  0
  1  4  1  0
  1  5  1  0
  5  6  1  0
  6  7  2  0
  6  8  1  1
  6  9  1  0
  9 10  1  0
 10 11  2  0
 10 12  1  1
 10 13  1  0
 13 14  1  0
 15 14  1  1
 15 16  1  0
 15 17  1  0
 16 21  1  0
 17 18  1  6
 17 19  1  0
 19 20  1  1
 19 21  1  0
 21 22  1  1
 22 23  1  0
 22 32  1  0
 23 24  2  0
 24 25  1  0
 25 26  1  0
 25 32  2  0
 26 27  2  0
 26 28  1  0
 28 29  1  0
 29 30  1  0
 29 31  2  0
 31 32  1  0
M  CHG  4   3  -1   4  -1   8  -1  12  -1
M  END
$$$$
