1P62_ligand
     RDKit          3D

 18 19  0  0  1  0  0  0  0  0999 V2000
   70.3809   38.1554   20.4578 O   0  0  0  0  0  0  0  0  0  0  0  0
   70.5766   37.4081   21.6361 C   0  0  0  0  0  0  0  0  0  0  0  0
   70.5326   35.8906   21.3843 C   0  0  1  0  0  0  0  0  0  0  0  0
   69.2003   35.5029   21.0574 O   0  0  0  0  0  0  0  0  0  0  0  0
   69.1867   34.5660   20.0195 C   0  0  1  0  0  0  0  0  0  0  0  0
   67.8815   34.4594   19.3646 N   0  0  0  0  0  0  0  0  0  0  0  0
   66.9747   35.4915   19.4353 C   0  0  0  0  0  0  0  0  0  0  0  0
   65.7592   35.4253   18.8698 C   0  0  0  0  0  0  0  0  0  0  0  0
   65.4320   34.2105   18.1841 C   0  0  0  0  0  0  0  0  0  0  0  0
   66.2861   33.2567   18.0733 N   0  0  0  0  0  0  0  0  0  0  0  0
   67.5834   33.3265   18.6210 C   0  0  0  0  0  0  0  0  0  0  0  0
   68.4245   32.4379   18.5018 O   0  0  0  0  0  0  0  0  0  0  0  0
   64.2031   34.0799   17.6763 N   0  0  0  0  0  0  0  0  0  0  0  0
   70.3807   34.9405   19.1508 C   0  0  0  0  0  0  0  0  0  0  0  0
   70.0800   35.9743   18.3641 F   0  0  0  0  0  0  0  0  0  0  0  0
   70.8101   33.9324   18.3936 F   0  0  0  0  0  0  0  0  0  0  0  0
   71.3936   35.3702   20.2161 C   0  0  2  0  0  0  0  0  0  0  0  0
   72.2749   34.3459   20.6363 O   0  0  0  0  0  0  0  0  0  0  0  0
  1  2  1  0
  3  2  1  6
  3  4  1  0
  3 17  1  0
  4  5  1  0
  5  6  1  6
  5 14  1  0
  6  7  1  0
  6 11  1  0
  7  8  2  0
  8  9  1  0
  9 10  2  0
  9 13  1  0
 10 11  1  0
 11 12  2  0
 14 15  1  0
 14 16  1  0
 14 17  1  0
 17 18  1  1
M  END
$$$$
