8EX2_ligand
     RDKit          3D

 26 29  0  0  1  0  0  0  0  0999 V2000
   14.1823   14.1525   24.8663 C   0  0  0  0  0  0  0  0  0  0  0  0
   14.3083   14.9818   23.7576 C   0  0  0  0  0  0  0  0  0  0  0  0
   15.5269   15.0642   23.0903 C   0  0  0  0  0  0  0  0  0  0  0  0
   16.6347   14.3139   23.5236 C   0  0  0  0  0  0  0  0  0  0  0  0
   16.4858   13.4847   24.6464 C   0  0  0  0  0  0  0  0  0  0  0  0
   15.2668   13.4052   25.3135 C   0  0  0  0  0  0  0  0  0  0  0  0
   17.9315   14.3865   22.8023 C   0  0  0  0  0  0  0  0  0  0  0  0
   18.1070   15.5036   21.7373 C   0  0  0  0  0  0  0  0  0  0  0  0
   19.4744   15.6204   21.0418 C   0  0  0  0  0  0  0  0  0  0  0  0
   20.0579   13.5679   22.2988 C   0  0  0  0  0  0  0  0  0  0  0  0
   21.0933   12.6365   22.1836 C   0  0  0  0  0  0  0  0  0  0  0  0
   21.9475   13.1758   21.1912 C   0  0  0  0  0  0  0  0  0  0  0  0
   23.2403   12.6339   20.6028 C   0  0  0  0  0  0  0  0  0  0  0  0
   21.2710   11.3734   22.9630 C   0  0  0  0  0  0  0  0  0  0  0  0
   20.9416   11.3525   24.3215 C   0  0  0  0  0  0  0  0  0  0  0  0
   21.1407   10.1994   25.0722 C   0  0  0  0  0  0  0  0  0  0  0  0
   21.6677    9.0628   24.4676 C   0  0  0  0  0  0  0  0  0  0  0  0
   21.9871    9.0652   23.1126 C   0  0  0  0  0  0  0  0  0  0  0  0
   21.7859   10.2190   22.3621 C   0  0  0  0  0  0  0  0  0  0  0  0
   24.0089   12.0829   21.5394 F   0  0  0  0  0  0  0  0  0  0  0  0
   23.9559   13.5933   20.0186 F   0  0  0  0  0  0  0  0  0  0  0  0
   22.9973   11.7106   19.6743 F   0  0  0  0  0  0  0  0  0  0  0  0
   20.3267   14.5346   21.3569 N   0  0  0  0  0  0  0  0  0  0  0  0
   18.9025   13.5724   23.0368 N   0  0  0  0  0  0  0  0  0  0  0  0
   21.4747   14.3065   20.7187 N   0  0  0  0  0  0  0  0  0  0  0  0
   19.8213   16.5090   20.2631 O   0  0  0  0  0  0  0  0  0  0  0  0
  1  2  2  0
  1  6  1  0
  2  3  1  0
  3  4  2  0
  4  5  1  0
  4  7  1  0
  5  6  2  0
  7  8  1  0
  7 24  2  0
  8  9  1  0
  9 23  1  0
  9 26  2  0
 10 11  2  0
 10 23  1  0
 10 24  1  0
 11 12  1  0
 11 14  1  0
 12 13  1  0
 12 25  2  0
 13 20  1  0
 13 21  1  0
 13 22  1  0
 14 15  2  0
 14 19  1  0
 15 16  1  0
 16 17  2  0
 17 18  1  0
 18 19  2  0
 23 25  1  0
M  END
$$$$
