7LMO_ligand
     RDKit          3D

 37 41  0  0  1  0  0  0  0  0999 V2000
   -0.7324  -20.7354   35.8525 C   0  0  0  0  0  0  0  0  0  0  0  0
   -0.5630  -19.7500   34.8657 C   0  0  0  0  0  0  0  0  0  0  0  0
   -1.6030  -18.9020   34.4864 C   0  0  0  0  0  0  0  0  0  0  0  0
   -7.0045  -16.2709   37.0617 N   0  0  0  0  0  0  0  0  0  0  0  0
   -8.3315  -17.5159   45.6009 N   0  0  0  0  0  0  0  0  0  0  0  0
    1.6913  -21.4276   35.6906 C   0  0  0  0  0  0  0  0  0  0  0  0
   -6.2974  -19.5269   37.2244 O   0  0  0  0  0  0  0  0  0  0  0  0
   -5.3271  -19.3273   36.4974 C   0  0  0  0  0  0  0  0  0  0  0  0
   -4.2482  -20.1538   36.7285 O   0  0  0  0  0  0  0  0  0  0  0  0
   -3.0411  -19.9849   36.0752 C   0  0  0  0  0  0  0  0  0  0  0  0
   -2.0021  -20.8381   36.4433 C   0  0  0  0  0  0  0  0  0  0  0  0
    0.3423  -21.5834   36.2489 N   0  0  0  0  0  0  0  0  0  0  0  0
    1.8937  -22.1150   34.3329 C   0  0  0  0  0  0  0  0  0  0  0  0
    0.1175  -22.7481   37.1133 C   0  0  0  0  0  0  0  0  0  0  0  0
   -0.5803  -23.9189   36.4049 C   0  0  0  0  0  0  0  0  0  0  0  0
   -5.2089  -18.3322   35.4001 C   0  0  0  0  0  0  0  0  0  0  0  0
   -4.0292  -18.1656   34.7449 C   0  0  0  0  0  0  0  0  0  0  0  0
   -3.8316  -17.1489   33.6230 C   0  0  0  0  0  0  0  0  0  0  0  0
   -2.8579  -19.0067   35.0935 C   0  0  0  0  0  0  0  0  0  0  0  0
   -6.5413  -17.6862   34.9879 C   0  0  0  0  0  0  0  0  0  0  0  0
   -6.8366  -16.3021   35.6010 C   0  0  0  0  0  0  0  0  0  0  0  0
   -6.1532  -15.5871   37.8695 C   0  0  0  0  0  0  0  0  0  0  0  0
   -5.3934  -14.6696   37.5643 O   0  0  0  0  0  0  0  0  0  0  0  0
   -6.5449  -15.8789   39.1136 N   0  0  0  0  0  0  0  0  0  0  0  0
   -7.7035  -16.7188   39.1763 C   0  0  2  0  0  0  0  0  0  0  0  0
   -8.0173  -16.8954   37.7036 C   0  0  0  0  0  0  0  0  0  0  0  0
   -8.9540  -17.5364   37.2224 O   0  0  0  0  0  0  0  0  0  0  0  0
   -8.8966  -16.1702   39.9595 C   0  0  0  0  0  0  0  0  0  0  0  0
   -8.6839  -16.6361   41.3960 C   0  0  0  0  0  0  0  0  0  0  0  0
   -7.8530  -17.8364   41.2640 N   0  0  0  0  0  0  0  0  0  0  0  0
   -7.5030  -18.0857   39.8559 C   0  0  0  0  0  0  0  0  0  0  0  0
   -7.3542  -18.6290   42.2542 C   0  0  0  0  0  0  0  0  0  0  0  0
   -6.6404  -19.5987   41.9804 O   0  0  0  0  0  0  0  0  0  0  0  0
   -7.6374  -18.3537   43.6656 C   0  0  0  0  0  0  0  0  0  0  0  0
   -7.1808  -19.1461   44.6366 N   0  0  0  0  0  0  0  0  0  0  0  0
   -7.5912  -18.6444   45.7737 C   0  0  0  0  0  0  0  0  0  0  0  0
   -8.3541  -17.2981   44.2544 C   0  0  0  0  0  0  0  0  0  0  0  0
  1  2  2  0
  1 11  1  0
  1 12  1  0
  2  3  1  0
  3 19  2  0
  4 21  1  0
  4 22  1  0
  4 26  1  0
  5 36  1  0
  5 37  1  0
  6 12  1  0
  6 13  1  0
  7  8  2  0
  8  9  1  0
  8 16  1  0
  9 10  1  0
 10 11  2  0
 10 19  1  0
 12 14  1  0
 14 15  1  0
 16 17  2  0
 16 20  1  0
 17 18  1  0
 17 19  1  0
 20 21  1  0
 22 23  2  0
 22 24  1  0
 24 25  1  0
 25 26  1  0
 25 28  1  1
 25 31  1  0
 26 27  2  0
 28 29  1  0
 29 30  1  0
 30 31  1  0
 30 32  1  0
 32 33  2  0
 32 34  1  0
 34 35  1  0
 34 37  2  0
 35 36  2  0
M  END
$$$$
