7M31_ligand
     RDKit          3D

  9  9  0  0  1  0  0  0  0  0999 V2000
   -2.0122  103.9444   25.6641 N   0  0  0  0  0  0  0  0  0  0  0  0
   -1.2353  102.9754   26.2262 C   0  0  0  0  0  0  0  0  0  0  0  0
   -0.3469  102.3962   25.6111 O   0  0  0  0  0  0  0  0  0  0  0  0
   -1.5530  102.6962   27.5311 N   0  0  0  0  0  0  0  0  0  0  0  0
   -2.5306  103.2348   28.3211 C   0  0  0  0  0  0  0  0  0  0  0  0
   -2.7166  102.8489   29.4741 O   0  0  0  0  0  0  0  0  0  0  0  0
   -3.3226  104.2646   27.6457 C   0  0  0  0  0  0  0  0  0  0  0  0
   -4.4135  104.9795   28.4315 C   0  0  0  0  0  0  0  0  0  0  0  0
   -3.0156  104.5507   26.3618 C   0  0  0  0  0  0  0  0  0  0  0  0
  1  2  1  0
  1  9  1  0
  2  3  2  0
  2  4  1  0
  4  5  1  0
  5  6  2  0
  5  7  1  0
  7  8  1  0
  7  9  2  0
M  END
$$$$
