7KB1_ligand
     RDKit          3D

 22 22  0  0  1  0  0  0  0  0999 V2000
    0.4619   10.5267   47.5112 C   0  0  0  0  0  0  0  0  0  0  0  0
    0.3061    4.7939   48.5339 C   0  0  0  0  0  0  0  0  0  0  0  0
   -5.2233    6.8649   45.2333 C   0  0  0  0  0  0  0  0  0  0  0  0
   -5.5412    3.9067   45.4702 C   0  0  0  0  0  0  0  0  0  0  0  0
   -4.4299    4.5677   45.8551 C   0  0  0  0  0  0  0  0  0  0  0  0
   -4.2150    5.9467   45.7980 C   0  0  0  0  0  0  0  0  0  0  0  0
   -1.8413    5.8720   46.7127 C   0  0  0  0  0  0  0  0  0  0  0  0
   -0.7572    6.8238   47.2841 C   0  0  0  0  0  0  0  0  0  0  0  0
   -0.6608    8.2206   46.9848 C   0  0  0  0  0  0  0  0  0  0  0  0
    0.3133    9.0087   47.6346 C   0  0  0  0  0  0  0  0  0  0  0  0
    1.1775    7.1018   48.7222 C   0  0  0  0  0  0  0  0  0  0  0  0
    0.2133    6.2707   48.1553 C   0  0  0  0  0  0  0  0  0  0  0  0
   -3.0890    6.5220   46.2131 N   0  0  0  0  0  0  0  0  0  0  0  0
    1.1779    8.4133   48.4684 N   0  0  0  0  0  0  0  0  0  0  0  0
   -1.4214    8.7972   46.1354 O   0  0  0  0  0  0  0  0  0  0  0  0
    1.0626    4.0911   47.5674 O   0  0  0  0  0  0  0  0  0  0  0  0
   -0.9683    2.9432   46.3422 O   0  0  0  0  0  0  0  0  0  0  0  0
    0.5263    1.5609   47.8825 O   0  0  0  0  0  0  0  0  0  0  0  0
    1.4223    2.3523   45.6203 O   0  0  0  0  0  0  0  0  0  0  0  0
   -5.8126    7.6187   46.0389 O   0  0  0  0  0  0  0  0  0  0  0  0
   -5.3663    6.8392   43.9897 O   0  0  0  0  0  0  0  0  0  0  0  0
    0.4678    2.6392   46.7923 P   0  0  0  0  0  0  0  0  0  0  0  0
  1 10  1  0
  2 12  1  0
  2 16  1  0
  3  6  1  0
  3 20  1  0
  3 21  2  0
  4  5  2  0
  5  6  1  0
  6 13  2  0
  7  8  1  0
  7 13  1  0
  8  9  2  0
  8 12  1  0
  9 10  1  0
  9 15  1  0
 10 14  2  0
 11 12  2  0
 11 14  1  0
 16 22  1  0
 17 22  1  0
 18 22  1  0
 19 22  2  0
M  CHG  6  13   1  14   1  15  -1  17  -1  18  -1  20  -1
M  END
$$$$
