7SNE_ligand
     RDKit          3D

 45 49  0  0  1  0  0  0  0  0999 V2000
   14.2616   11.0561   49.9722 O   0  0  0  0  0  0  0  0  0  0  0  0
   13.1798   11.6154   50.1339 C   0  0  0  0  0  0  0  0  0  0  0  0
   12.0253   10.9924   49.8837 N   0  0  0  0  0  0  0  0  0  0  0  0
   13.1038   13.0385   50.6275 C   0  0  0  0  0  0  0  0  0  0  0  0
   12.0067   13.5007   51.3742 C   0  0  0  0  0  0  0  0  0  0  0  0
   14.1560   13.9249   50.3542 C   0  0  0  0  0  0  0  0  0  0  0  0
   14.1241   15.2288   50.8448 C   0  0  0  0  0  0  0  0  0  0  0  0
   13.0641   15.6526   51.6322 C   0  0  0  0  0  0  0  0  0  0  0  0
   11.9792   14.8133   51.8672 C   0  0  0  0  0  0  0  0  0  0  0  0
    9.5755   14.7802   52.5704 C   0  0  1  0  0  0  0  0  0  0  0  0
    9.4600   13.7918   53.5380 O   0  0  0  0  0  0  0  0  0  0  0  0
    8.4565   15.8137   52.8385 C   0  0  2  0  0  0  0  0  0  0  0  0
    8.9083   17.1030   53.2411 O   0  0  0  0  0  0  0  0  0  0  0  0
    7.5730   15.0764   53.8614 C   0  0  2  0  0  0  0  0  0  0  0  0
    7.5402   15.6935   55.1392 O   0  0  0  0  0  0  0  0  0  0  0  0
    8.1139   13.6426   53.9536 C   0  0  1  0  0  0  0  0  0  0  0  0
    7.4057   12.6143   53.0521 C   0  0  0  0  0  0  0  0  0  0  0  0
    8.2049   11.4505   52.8985 O   0  0  0  0  0  0  0  0  0  0  0  0
    8.5023   10.9002   51.2889 P   0  0  1  0  0  0  0  0  0  0  0  0
    8.8326   12.0683   50.3875 O   0  0  0  0  0  0  0  0  0  0  0  0
    9.3593    9.6583   51.3492 O   0  0  0  0  0  0  0  0  0  0  0  0
    6.9127   10.3980   50.9560 O   0  0  0  0  0  0  0  0  0  0  0  0
    6.0270    9.6172   49.7387 P   0  0  2  0  0  0  0  0  0  0  0  0
    6.2676   10.3414   48.4350 O   0  0  0  0  0  0  0  0  0  0  0  0
    4.6457    9.3097   50.2688 O   0  0  0  0  0  0  0  0  0  0  0  0
    6.9870    8.1875   49.7281 O   0  0  0  0  0  0  0  0  0  0  0  0
    6.8761    7.2902   50.8220 C   0  0  0  0  0  0  0  0  0  0  0  0
    6.5618    5.8848   50.2917 C   0  0  2  0  0  0  0  0  0  0  0  0
    7.4844    5.3335   49.2107 C   0  0  1  0  0  0  0  0  0  0  0  0
    8.6925    4.7962   49.7225 O   0  0  0  0  0  0  0  0  0  0  0  0
    6.5855    4.3229   48.4983 C   0  0  1  0  0  0  0  0  0  0  0  0
    6.4309    3.0662   49.1408 O   0  0  0  0  0  0  0  0  0  0  0  0
    5.2325    5.0410   48.5481 C   0  0  1  0  0  0  0  0  0  0  0  0
    5.3057    5.9242   49.6323 O   0  0  0  0  0  0  0  0  0  0  0  0
    4.8610    5.8160   47.2999 N   0  0  0  0  0  0  0  0  0  0  0  0
    4.0864    5.3473   46.2786 C   0  0  0  0  0  0  0  0  0  0  0  0
    3.9129    6.4237   45.4271 C   0  0  0  0  0  0  0  0  0  0  0  0
    4.6160    7.4881   45.8470 N   0  0  0  0  0  0  0  0  0  0  0  0
    5.1850    7.0785   46.9535 C   0  0  0  0  0  0  0  0  0  0  0  0
    3.5407    4.1148   46.1248 N   0  0  0  0  0  0  0  0  0  0  0  0
    2.7790    4.0504   45.0224 C   0  0  0  0  0  0  0  0  0  0  0  0
    2.5033    5.0084   44.1275 N   0  0  0  0  0  0  0  0  0  0  0  0
    3.0631    6.2343   44.3127 C   0  0  0  0  0  0  0  0  0  0  0  0
    2.7711    7.2325   43.3899 N   0  0  0  0  0  0  0  0  0  0  0  0
   10.8841   15.3550   52.5487 N   0  0  0  0  0  0  0  0  0  0  0  0
  1  2  2  0
  2  3  1  0
  2  4  1  0
  4  5  2  0
  4  6  1  0
  5  9  1  0
  6  7  2  0
  7  8  1  0
  8  9  2  0
  9 45  1  0
 10 11  1  0
 10 12  1  0
 10 45  1  1
 11 16  1  0
 12 13  1  1
 12 14  1  0
 14 15  1  1
 14 16  1  0
 16 17  1  6
 17 18  1  0
 18 19  1  0
 19 20  1  6
 19 21  2  0
 19 22  1  0
 22 23  1  0
 23 24  1  6
 23 25  2  0
 23 26  1  0
 26 27  1  0
 28 27  1  6
 28 29  1  0
 28 34  1  0
 29 30  1  1
 29 31  1  0
 31 32  1  1
 31 33  1  0
 33 34  1  0
 33 35  1  6
 35 36  1  0
 35 39  1  0
 36 37  2  0
 36 40  1  0
 37 38  1  0
 37 43  1  0
 38 39  2  0
 40 41  2  0
 41 42  1  0
 42 43  2  0
 43 44  1  0
M  CHG  2  20  -1  24  -1
M  END
$$$$
