7XRL_ligand
     RDKit          3D

 19 21  0  0  1  0  0  0  0  0999 V2000
  -11.6110    4.0026   -8.6166 C   0  0  0  0  0  0  0  0  0  0  0  0
  -10.3460    3.1554   -8.6993 C   0  0  1  0  0  0  0  0  0  0  0  0
   -9.7429    3.0797   -7.4200 O   0  0  0  0  0  0  0  0  0  0  0  0
  -10.5881    1.7134   -9.0992 C   0  0  1  0  0  0  0  0  0  0  0  0
  -10.6040    1.5913  -10.5080 O   0  0  0  0  0  0  0  0  0  0  0  0
   -9.4694    0.9648   -8.3778 C   0  0  1  0  0  0  0  0  0  0  0  0
   -8.2208    1.0357   -9.0226 O   0  0  0  0  0  0  0  0  0  0  0  0
   -9.3588    1.7838   -7.0875 C   0  0  2  0  0  0  0  0  0  0  0  0
  -10.1202    1.3241   -5.8631 N   0  0  0  0  0  0  0  0  0  0  0  0
   -9.8620    1.7568   -4.6177 C   0  0  0  0  0  0  0  0  0  0  0  0
  -10.6396    1.2419   -3.7052 N   0  0  0  0  0  0  0  0  0  0  0  0
  -11.4147    0.3877   -4.3854 C   0  0  0  0  0  0  0  0  0  0  0  0
  -11.1571    0.4367   -5.7446 C   0  0  0  0  0  0  0  0  0  0  0  0
  -11.7765   -0.3128   -6.6902 N   0  0  0  0  0  0  0  0  0  0  0  0
  -12.6805   -1.1422   -6.1504 C   0  0  0  0  0  0  0  0  0  0  0  0
  -13.0271   -1.2948   -4.8659 N   0  0  0  0  0  0  0  0  0  0  0  0
  -12.3902   -0.5289   -3.9415 C   0  0  0  0  0  0  0  0  0  0  0  0
  -12.6903   -0.7080   -2.5978 N   0  0  0  0  0  0  0  0  0  0  0  0
  -11.2817    5.4032   -8.1253 C   0  0  0  0  0  0  0  0  0  0  0  0
  2  1  1  1
  1 19  1  0
  2  3  1  0
  2  4  1  0
  3  8  1  0
  4  5  1  6
  4  6  1  0
  6  7  1  6
  6  8  1  0
  8  9  1  1
  9 10  1  0
  9 13  1  0
 10 11  2  0
 11 12  1  0
 12 13  2  0
 12 17  1  0
 13 14  1  0
 14 15  2  0
 15 16  1  0
 16 17  2  0
 17 18  1  0
M  END
$$$$
