7OU8_ligand
     RDKit          3D

 23 25  0  0  1  0  0  0  0  0999 V2000
   -1.3205   77.9021   67.0379 C   0  0  2  0  0  0  0  0  0  0  0  0
   -2.6614   77.1521   67.2755 C   0  0  2  0  0  0  0  0  0  0  0  0
   -3.2349   77.5314   68.6582 C   0  0  1  0  0  0  0  0  0  0  0  0
   -3.7357   79.5519   70.1486 N   0  0  0  0  0  0  0  0  0  0  0  0
   -1.6078   79.3405   66.9908 N   0  0  0  0  0  0  0  0  0  0  0  0
   -2.0378   79.8020   68.3268 C   0  0  0  0  0  0  0  0  0  0  0  0
   -3.6386   79.9275   72.5622 C   0  0  0  0  0  0  0  0  0  0  0  0
   -3.0588   79.3351   71.2902 C   0  0  0  0  0  0  0  0  0  0  0  0
   -2.0018   78.7119   71.3473 O   0  0  0  0  0  0  0  0  0  0  0  0
   -3.3236   79.0782   68.8223 C   0  0  1  0  0  0  0  0  0  0  0  0
   -1.9380   79.7821   65.7712 C   0  0  0  0  0  0  0  0  0  0  0  0
   -2.6550   80.8777   65.4921 N   0  0  0  0  0  0  0  0  0  0  0  0
   -2.8656   81.4581   64.1559 C   0  0  0  0  0  0  0  0  0  0  0  0
   -2.9727   82.9808   64.0461 C   0  0  0  0  0  0  0  0  0  0  0  0
   -3.2763   83.5100   62.7884 C   0  0  0  0  0  0  0  0  0  0  0  0
   -3.3580   84.8871   62.6038 C   0  0  0  0  0  0  0  0  0  0  0  0
   -3.1397   85.7406   63.6813 C   0  0  0  0  0  0  0  0  0  0  0  0
   -2.8394   85.2299   64.9407 C   0  0  0  0  0  0  0  0  0  0  0  0
   -2.7508   83.8529   65.1237 C   0  0  0  0  0  0  0  0  0  0  0  0
   -1.3068   78.7488   64.5078 S   0  0  0  0  0  0  0  0  0  0  0  0
   -0.5966   77.6298   65.7315 C   0  0  0  0  0  0  0  0  0  0  0  0
   -2.4640   75.7589   67.1865 O   0  0  0  0  0  0  0  0  0  0  0  0
   -4.4634   76.8930   68.9416 O   0  0  0  0  0  0  0  0  0  0  0  0
  1  2  1  0
  1  5  1  0
  1 21  1  6
  2  3  1  0
  2 22  1  1
  3 10  1  0
  3 23  1  6
  4  8  1  0
 10  4  1  1
  5  6  1  0
  5 11  1  0
  6 10  1  0
  7  8  1  0
  8  9  2  0
 11 12  2  0
 11 20  1  0
 12 13  1  0
 13 14  1  0
 14 15  2  0
 14 19  1  0
 15 16  1  0
 16 17  2  0
 17 18  1  0
 18 19  2  0
 20 21  1  0
M  CHG  1  12   1
M  END
$$$$
