7A1P_ligand
     RDKit          3D

 13 12  0  0  1  0  0  0  0  0999 V2000
   18.7285  -24.8361    6.3655 C   0  0  0  0  0  0  0  0  0  0  0  0
   20.1314  -24.8687    5.7317 C   0  0  0  0  0  0  0  0  0  0  0  0
   20.1463  -24.2611    4.3259 C   0  0  0  0  0  0  0  0  0  0  0  0
   22.2306  -24.9104    9.2123 C   0  0  0  0  0  0  0  0  0  0  0  0
   17.1286  -25.2283    8.2678 C   0  0  0  0  0  0  0  0  0  0  0  0
   18.5719  -25.4996    7.7683 C   0  0  2  0  0  0  0  0  0  0  0  0
   19.6136  -25.0401    8.8346 C   0  0  0  0  0  0  0  0  0  0  0  0
   21.0024  -25.6867    8.7679 C   0  0  0  0  0  0  0  0  0  0  0  0
   21.1316  -26.8287    8.3178 O   0  0  0  0  0  0  0  0  0  0  0  0
   23.3429  -25.4533    9.0185 O   0  0  0  0  0  0  0  0  0  0  0  0
   22.0330  -23.7898    9.7343 O   0  0  0  0  0  0  0  0  0  0  0  0
   16.2100  -25.9216    7.7825 O   0  0  0  0  0  0  0  0  0  0  0  0
   16.9182  -24.3058    9.0850 O   0  0  0  0  0  0  0  0  0  0  0  0
  1  2  1  0
  6  1  1  6
  2  3  1  0
  4  8  1  0
  4 10  2  0
  4 11  1  0
  5  6  1  0
  5 12  2  0
  5 13  1  0
  6  7  1  0
  7  8  1  0
  8  9  2  0
M  CHG  2  11  -1  13  -1
M  END
$$$$
