7SIU_ligand
     RDKit          3D

 31 34  0  0  1  0  0  0  0  0999 V2000
  -34.2101    4.3877  -24.0387 N   0  0  0  0  0  0  0  0  0  0  0  0
  -31.2306    4.3753  -21.8346 N   0  0  0  0  0  0  0  0  0  0  0  0
  -33.2278    4.1969  -20.5539 C   0  0  0  0  0  0  0  0  0  0  0  0
  -31.8304    4.2394  -20.6222 C   0  0  0  0  0  0  0  0  0  0  0  0
  -31.9852    4.4290  -22.9714 C   0  0  0  0  0  0  0  0  0  0  0  0
  -31.2158    4.5280  -24.2766 C   0  0  0  0  0  0  0  0  0  0  0  0
  -30.9014    4.1584  -19.4499 C   0  0  0  0  0  0  0  0  0  0  0  0
  -30.5642    3.9779  -16.9171 C   0  0  0  0  0  0  0  0  0  0  0  0
  -29.4122    3.8655  -19.7019 C   0  0  0  0  0  0  0  0  0  0  0  0
  -24.7754    3.3793  -18.3104 C   0  0  0  0  0  0  0  0  0  0  0  0
  -23.3747    2.0527  -19.7714 C   0  0  0  0  0  0  0  0  0  0  0  0
  -23.8196    3.2522  -17.2958 C   0  0  0  0  0  0  0  0  0  0  0  0
  -36.3242    4.4515  -25.3406 C   0  0  0  0  0  0  0  0  0  0  0  0
  -26.1061    4.9667  -17.1377 O   0  0  0  0  0  0  0  0  0  0  0  0
  -26.0615    4.1043  -18.0138 C   0  0  0  0  0  0  0  0  0  0  0  0
  -22.6642    2.5134  -17.5084 C   0  0  0  0  0  0  0  0  0  0  0  0
  -22.4485    1.9134  -18.7449 C   0  0  0  0  0  0  0  0  0  0  0  0
  -24.5347    2.7899  -19.5618 C   0  0  0  0  0  0  0  0  0  0  0  0
  -27.1405    3.7068  -18.7096 N   0  0  0  0  0  0  0  0  0  0  0  0
  -28.5191    4.1260  -18.4692 C   0  0  2  0  0  0  0  0  0  0  0  0
  -29.1365    3.4814  -17.2121 C   0  0  0  0  0  0  0  0  0  0  0  0
  -31.3883    4.1490  -18.1852 C   0  0  0  0  0  0  0  0  0  0  0  0
  -33.9977    4.2639  -21.6671 N   0  0  0  0  0  0  0  0  0  0  0  0
  -29.9521    4.0923  -24.2687 N   0  0  0  0  0  0  0  0  0  0  0  0
  -31.7208    4.9784  -25.3043 O   0  0  0  0  0  0  0  0  0  0  0  0
  -33.3960    4.3684  -22.8847 C   0  0  0  0  0  0  0  0  0  0  0  0
  -35.5818    4.3487  -24.1529 C   0  0  0  0  0  0  0  0  0  0  0  0
  -36.5738    4.2054  -23.1888 C   0  0  0  0  0  0  0  0  0  0  0  0
  -37.6249    4.3878  -25.1671 N   0  0  0  0  0  0  0  0  0  0  0  0
  -37.7720    4.2357  -23.8482 N   0  0  0  0  0  0  0  0  0  0  0  0
  -39.1039    4.1388  -23.2813 C   0  0  0  0  0  0  0  0  0  0  0  0
  1 26  1  0
  1 27  1  0
  2  4  2  0
  2  5  1  0
  3  4  1  0
  3 23  2  0
  4  7  1  0
  5  6  1  0
  5 26  2  0
  6 24  1  0
  6 25  2  0
  7  9  1  0
  7 22  2  0
  8 21  1  0
  8 22  1  0
  9 20  1  0
 10 12  1  0
 10 15  1  0
 10 18  2  0
 11 17  2  0
 11 18  1  0
 12 16  2  0
 13 27  1  0
 13 29  2  0
 14 15  2  0
 15 19  1  0
 16 17  1  0
 20 19  1  6
 20 21  1  0
 23 26  1  0
 27 28  2  0
 28 30  1  0
 29 30  1  0
 30 31  1  0
M  END
$$$$
