8EAD_ligand
     RDKit          3D

 38 41  0  0  1  0  0  0  0  0999 V2000
   14.0788   -9.8899   -4.3978 C   0  0  0  0  0  0  0  0  0  0  0  0
   13.9732  -12.8408   -6.6577 C   0  0  0  0  0  0  0  0  0  0  0  0
   15.1073  -14.3288   -4.8525 C   0  0  0  0  0  0  0  0  0  0  0  0
   14.0979  -16.0781   -6.2555 C   0  0  0  0  0  0  0  0  0  0  0  0
   13.5452   -8.3943   -2.5724 C   0  0  0  0  0  0  0  0  0  0  0  0
   12.7120   -5.2186    0.2488 C   0  0  0  0  0  0  0  0  0  0  0  0
   10.3796   -6.1749   -0.1361 C   0  0  0  0  0  0  0  0  0  0  0  0
    8.3393   -7.4517   -0.0429 C   0  0  0  0  0  0  0  0  0  0  0  0
   12.8200   -3.1819    1.8097 C   0  0  0  0  0  0  0  0  0  0  0  0
   13.4432   -4.1800    0.8487 C   0  0  0  0  0  0  0  0  0  0  0  0
   14.7912   -4.0719    0.4931 C   0  0  0  0  0  0  0  0  0  0  0  0
   14.6127   -5.8879   -0.9259 C   0  0  0  0  0  0  0  0  0  0  0  0
   14.7761   -7.7412   -2.7262 C   0  0  0  0  0  0  0  0  0  0  0  0
   15.6434   -8.1670   -3.7332 C   0  0  0  0  0  0  0  0  0  0  0  0
   15.3019   -9.2257   -4.5678 C   0  0  0  0  0  0  0  0  0  0  0  0
   14.5053  -11.4743   -6.1876 C   0  0  0  0  0  0  0  0  0  0  0  0
   15.3799  -15.6799   -5.5207 C   0  0  0  0  0  0  0  0  0  0  0  0
   13.0216  -15.0927   -5.8003 C   0  0  0  0  0  0  0  0  0  0  0  0
   13.2050   -9.4588   -3.4014 C   0  0  0  0  0  0  0  0  0  0  0  0
    9.3000   -6.6695    0.5876 C   0  0  0  0  0  0  0  0  0  0  0  0
    8.4497   -7.7494   -1.4023 C   0  0  0  0  0  0  0  0  0  0  0  0
    9.5168   -7.2456   -2.1765 C   0  0  0  0  0  0  0  0  0  0  0  0
    9.0873   -5.5327   -5.3207 C   0  0  0  0  0  0  0  0  0  0  0  0
    8.6569   -4.6027   -4.1651 C   0  0  0  0  0  0  0  0  0  0  0  0
    7.8636   -6.2775   -5.8985 C   0  0  0  0  0  0  0  0  0  0  0  0
    9.7705   -4.7074   -6.4268 C   0  0  0  0  0  0  0  0  0  0  0  0
   10.4490   -6.4336   -1.5096 C   0  0  0  0  0  0  0  0  0  0  0  0
   15.3902   -4.9150   -0.3878 N   0  0  0  0  0  0  0  0  0  0  0  0
   15.2215   -6.6836   -1.9084 N   0  0  0  0  0  0  0  0  0  0  0  0
   13.7930  -13.8061   -5.4621 N   0  0  0  0  0  0  0  0  0  0  0  0
   13.3063   -6.0754   -0.6228 N   0  0  0  0  0  0  0  0  0  0  0  0
   11.3416   -5.3879    0.5226 N   0  0  0  0  0  0  0  0  0  0  0  0
    9.5684   -7.5699   -3.5167 N   0  0  0  0  0  0  0  0  0  0  0  0
   13.6620  -10.9653   -5.1558 O   0  0  0  0  0  0  0  0  0  0  0  0
   11.5285   -6.0748   -4.2615 O   0  0  0  0  0  0  0  0  0  0  0  0
   10.5749   -7.7476   -5.8053 O   0  0  0  0  0  0  0  0  0  0  0  0
   10.3478   -6.8371   -4.6765 S   0  0  0  0  0  0  0  0  0  0  0  0
    7.2178   -8.7614   -2.0929 Cl  0  0  0  0  0  0  0  0  0  0  0  0
  1 15  1  0
  1 19  2  0
  1 34  1  0
  2 16  1  0
  2 30  1  0
  3 17  1  0
  3 30  1  0
  4 17  1  0
  4 18  1  0
  5 13  2  0
  5 19  1  0
  6 10  2  0
  6 31  1  0
  6 32  1  0
  7 20  1  0
  7 27  2  0
  7 32  1  0
  8 20  2  0
  8 21  1  0
  9 10  1  0
 10 11  1  0
 11 28  2  0
 12 28  1  0
 12 29  1  0
 12 31  2  0
 13 14  1  0
 13 29  1  0
 14 15  2  0
 16 34  1  0
 18 30  1  0
 21 22  2  0
 21 38  1  0
 22 27  1  0
 22 33  1  0
 23 24  1  0
 23 25  1  0
 23 26  1  0
 23 37  1  0
 33 37  1  0
 35 37  2  0
 36 37  2  0
M  CHG  2  30   1  33  -1
M  END
$$$$
