1IG3_ligand
     RDKit          3D

 18 19  0  0  1  0  0  0  0  0999 V2000
   19.4612   39.6726   22.8791 C   0  0  0  0  0  0  0  0  0  0  0  0
   24.0310   39.1533   21.5331 N   0  0  0  0  0  0  0  0  0  0  0  0
   25.6324   40.3194   16.7715 C   0  0  0  0  0  0  0  0  0  0  0  0
   28.4551   44.5495   15.8285 O   0  0  0  0  0  0  0  0  0  0  0  0
   27.2953   44.1521   16.5295 C   0  0  0  0  0  0  0  0  0  0  0  0
   27.5748   42.8996   17.3776 C   0  0  0  0  0  0  0  0  0  0  0  0
   24.5050   42.1579   19.8175 C   0  0  0  0  0  0  0  0  0  0  0  0
   25.7863   43.2861   19.5706 S   0  0  0  0  0  0  0  0  0  0  0  0
   26.3523   42.4263   18.1470 C   0  0  0  0  0  0  0  0  0  0  0  0
   25.5179   41.3246   17.9024 C   0  0  0  0  0  0  0  0  0  0  0  0
   24.4871   41.1767   18.8435 N   0  0  0  0  0  0  0  0  0  0  0  0
   23.4842   40.0994   18.7738 C   0  0  0  0  0  0  0  0  0  0  0  0
   22.7429   39.5521   21.1892 C   0  0  0  0  0  0  0  0  0  0  0  0
   21.7945   39.4461   22.1566 N   0  0  0  0  0  0  0  0  0  0  0  0
   20.5297   39.7918   21.8075 C   0  0  0  0  0  0  0  0  0  0  0  0
   20.1301   40.2320   20.5882 N   0  0  0  0  0  0  0  0  0  0  0  0
   21.1029   40.3329   19.6461 C   0  0  0  0  0  0  0  0  0  0  0  0
   22.4441   40.0166   19.8962 C   0  0  0  0  0  0  0  0  0  0  0  0
  1 15  1  0
  2 13  1  0
  3 10  1  0
  4  5  1  0
  5  6  1  0
  6  9  1  0
  7  8  1  0
  7 11  2  0
  8  9  1  0
  9 10  2  0
 10 11  1  0
 11 12  1  0
 12 18  1  0
 13 14  2  0
 13 18  1  0
 14 15  1  0
 15 16  2  0
 16 17  1  0
 17 18  2  0
M  CHG  1  11   1
M  END
$$$$
