7RKW_ligand
     RDKit          3D

 25 27  0  0  1  0  0  0  0  0999 V2000
   17.3739   -7.7283   16.7219 C   0  0  0  0  0  0  0  0  0  0  0  0
   20.3459   -7.6250   18.4974 C   0  0  0  0  0  0  0  0  0  0  0  0
   14.8410  -10.2086   14.5928 F   0  0  0  0  0  0  0  0  0  0  0  0
   15.6653   -9.3945   15.2890 C   0  0  0  0  0  0  0  0  0  0  0  0
   16.3472   -8.3733   14.6327 C   0  0  0  0  0  0  0  0  0  0  0  0
   17.2046   -7.5426   15.3488 C   0  0  0  0  0  0  0  0  0  0  0  0
   16.6680   -8.7420   17.3763 C   0  0  0  0  0  0  0  0  0  0  0  0
   15.8216   -9.5790   16.6597 C   0  0  0  0  0  0  0  0  0  0  0  0
   18.2704   -6.7794   17.5123 C   0  0  2  0  0  0  0  0  0  0  0  0
   18.9949   -7.5198   18.5017 O   0  0  0  0  0  0  0  0  0  0  0  0
   21.0753   -7.0541   17.6827 O   0  0  0  0  0  0  0  0  0  0  0  0
   20.8610   -8.5118   19.5951 C   0  0  0  0  0  0  0  0  0  0  0  0
   20.0029   -9.2783   20.4033 C   0  0  0  0  0  0  0  0  0  0  0  0
   20.5163  -10.1398   21.3725 C   0  0  0  0  0  0  0  0  0  0  0  0
   19.4515  -11.1135   22.3208 Cl  0  0  0  0  0  0  0  0  0  0  0  0
   21.8943  -10.2418   21.5563 C   0  0  0  0  0  0  0  0  0  0  0  0
   22.7584   -9.4722   20.7828 C   0  0  0  0  0  0  0  0  0  0  0  0
   22.2423   -8.6164   19.8099 C   0  0  0  0  0  0  0  0  0  0  0  0
   24.4634   -9.5766   21.0283 Cl  0  0  0  0  0  0  0  0  0  0  0  0
   17.3994   -5.7155   18.1980 C   0  0  0  0  0  0  0  0  0  0  0  0
   18.1711   -4.7227   18.9269 N   0  0  0  0  0  0  0  0  0  0  0  0
   18.2906   -4.5939   20.2871 C   0  0  0  0  0  0  0  0  0  0  0  0
   18.9653   -3.5320   20.6621 N   0  0  0  0  0  0  0  0  0  0  0  0
   19.3655   -2.9890   19.5290 C   0  0  0  0  0  0  0  0  0  0  0  0
   18.8878   -3.6717   18.4190 C   0  0  0  0  0  0  0  0  0  0  0  0
  1  6  2  0
  1  7  1  0
  1  9  1  0
  2 10  1  0
  2 11  2  0
  2 12  1  0
  3  4  1  0
  4  5  2  0
  4  8  1  0
  5  6  1  0
  7  8  2  0
  9 10  1  0
  9 20  1  1
 12 13  2  0
 12 18  1  0
 13 14  1  0
 14 15  1  0
 14 16  2  0
 16 17  1  0
 17 18  2  0
 17 19  1  0
 20 21  1  0
 21 22  1  0
 21 25  1  0
 22 23  2  0
 23 24  1  0
 24 25  2  0
M  END
$$$$
