6ZCY_ligand
     RDKit          3D

 33 37  0  0  1  0  0  0  0  0999 V2000
    5.0943    3.3395   12.6831 C   0  0  0  0  0  0  0  0  0  0  0  0
    3.7134    3.2570   12.4433 C   0  0  0  0  0  0  0  0  0  0  0  0
    3.3332    2.0973   13.0951 C   0  0  0  0  0  0  0  0  0  0  0  0
   -2.8612   -2.0502   13.7815 N   0  0  0  0  0  0  0  0  0  0  0  0
    3.4280   -1.2992   15.6119 C   0  0  0  0  0  0  0  0  0  0  0  0
    0.9917   -2.1203   15.2542 C   0  0  0  0  0  0  0  0  0  0  0  0
    0.1419   -3.1413   15.6875 C   0  0  0  0  0  0  0  0  0  0  0  0
   -1.1853   -3.2430   15.2710 C   0  0  0  0  0  0  0  0  0  0  0  0
   -1.6458   -2.2587   14.3919 C   0  0  0  0  0  0  0  0  0  0  0  0
   -0.8248   -1.2008   13.9350 C   0  0  0  0  0  0  0  0  0  0  0  0
    0.5084   -1.1475   14.3695 C   0  0  0  0  0  0  0  0  0  0  0  0
   -1.6533   -0.3923   13.0769 C   0  0  0  0  0  0  0  0  0  0  0  0
   -4.0510   -2.8820   13.8329 C   0  0  0  0  0  0  0  0  0  0  0  0
   -1.2942    0.8260   12.3820 C   0  0  0  0  0  0  0  0  0  0  0  0
    0.9262    5.2715   10.8560 C   0  0  0  0  0  0  0  0  0  0  0  0
    0.4988    6.3873   11.8258 C   0  0  0  0  0  0  0  0  0  0  0  0
    0.8173    4.3444   13.0704 C   0  0  0  0  0  0  0  0  0  0  0  0
   -0.1720    1.3141   12.5161 O   0  0  0  0  0  0  0  0  0  0  0  0
   -2.2561    1.3844   11.6233 N   0  0  0  0  0  0  0  0  0  0  0  0
   -2.0916    2.6349   10.8931 C   0  0  0  0  0  0  0  0  0  0  0  0
   -2.8473   -0.9487   13.0118 N   0  0  0  0  0  0  0  0  0  0  0  0
    2.3026   -2.1240   15.7675 N   0  0  0  0  0  0  0  0  0  0  0  0
    4.4681   -1.5715   16.4420 N   0  0  0  0  0  0  0  0  0  0  0  0
    5.5615   -0.7720   16.3438 C   0  0  0  0  0  0  0  0  0  0  0  0
    5.6398    0.2807   15.4338 C   0  0  0  0  0  0  0  0  0  0  0  0
    3.4216   -0.2964   14.6956 N   0  0  0  0  0  0  0  0  0  0  0  0
    4.5211    0.5012   14.6197 C   0  0  0  0  0  0  0  0  0  0  0  0
    4.4416    1.6105   13.7415 N   0  0  0  0  0  0  0  0  0  0  0  0
    5.5093    2.3803   13.4818 N   0  0  0  0  0  0  0  0  0  0  0  0
    6.0861    4.3652   12.1880 C   0  0  0  0  0  0  0  0  0  0  0  0
    2.9252    4.1413   11.7563 N   0  0  0  0  0  0  0  0  0  0  0  0
    1.4661    4.1070   11.6991 C   0  0  2  0  0  0  0  0  0  0  0  0
    0.8616    5.8643   13.2207 N   0  0  0  0  0  0  0  0  0  0  0  0
  1  2  1  0
  1 29  2  0
  1 30  1  0
  2  3  2  0
  2 31  1  0
  3 28  1  0
  4  9  1  0
  4 13  1  0
  4 21  1  0
  5 22  1  0
  5 23  2  0
  5 26  1  0
  6  7  2  0
  6 11  1  0
  6 22  1  0
  7  8  1  0
  8  9  2  0
  9 10  1  0
 10 11  2  0
 10 12  1  0
 12 14  1  0
 12 21  2  0
 14 18  2  0
 14 19  1  0
 15 16  1  0
 15 32  1  0
 16 33  1  0
 17 32  1  0
 17 33  1  0
 19 20  1  0
 23 24  1  0
 24 25  2  0
 25 27  1  0
 26 27  2  0
 27 28  1  0
 28 29  1  0
 32 31  1  1
M  CHG  1  33   1
M  END
$$$$
