8C5D_ligand
     RDKit          3D

 30 30  0  0  1  0  0  0  0  0999 V2000
  -32.7228   -8.4780   16.6175 N   0  0  0  0  0  0  0  0  0  0  0  0
  -32.8839   -9.9835   16.8764 C   0  0  2  0  0  0  0  0  0  0  0  0
  -34.3922  -10.3279   16.7786 C   0  0  0  0  0  0  0  0  0  0  0  0
  -35.2588   -9.4522   16.9951 O   0  0  0  0  0  0  0  0  0  0  0  0
  -34.6769  -11.5154   16.5139 O   0  0  0  0  0  0  0  0  0  0  0  0
  -32.2884  -10.3078   18.2690 C   0  0  0  0  0  0  0  0  0  0  0  0
  -32.1717  -11.8240   18.5428 C   0  0  0  0  0  0  0  0  0  0  0  0
  -31.6819  -12.2037   19.9434 C   0  0  0  0  0  0  0  0  0  0  0  0
  -31.7372  -11.4123   20.8865 O   0  0  0  0  0  0  0  0  0  0  0  0
  -31.2297  -13.4582   20.0527 N   0  0  0  0  0  0  0  0  0  0  0  0
  -30.7749  -14.1316   21.2629 C   0  0  2  0  0  0  0  0  0  0  0  0
  -29.5906  -15.0330   20.8968 C   0  0  0  0  0  0  0  0  0  0  0  0
  -29.5326  -15.5514   19.7817 O   0  0  0  0  0  0  0  0  0  0  0  0
  -31.8948  -14.9835   21.8994 C   0  0  0  0  0  0  0  0  0  0  0  0
  -33.1755  -13.9668   22.6964 S   0  0  0  0  0  0  0  0  0  0  0  0
  -28.6881  -15.2337   21.8690 N   0  0  0  0  0  0  0  0  0  0  0  0
  -27.4587  -16.0232   21.7087 C   0  0  0  0  0  0  0  0  0  0  0  0
  -26.2497  -15.2188   21.1642 C   0  0  0  0  0  0  0  0  0  0  0  0
  -25.2620  -15.8929   20.7980 O   0  0  0  0  0  0  0  0  0  0  0  0
  -26.2827  -13.9651   21.1332 O   0  0  0  0  0  0  0  0  0  0  0  0
  -32.4486  -13.7133   24.3498 C   0  0  0  0  0  0  0  0  0  0  0  0
  -32.1591  -15.0196   25.0713 C   0  0  0  0  0  0  0  0  0  0  0  0
  -30.8866  -15.2639   25.5899 C   0  0  0  0  0  0  0  0  0  0  0  0
  -30.6158  -16.4691   26.2302 C   0  0  0  0  0  0  0  0  0  0  0  0
  -31.6156  -17.4442   26.3594 C   0  0  0  0  0  0  0  0  0  0  0  0
  -31.3371  -18.7317   27.0366 N   0  0  0  0  0  0  0  0  0  0  0  0
  -30.2041  -18.9385   27.4592 O   0  0  0  0  0  0  0  0  0  0  0  0
  -32.2555  -19.5380   27.1577 O   0  0  0  0  0  0  0  0  0  0  0  0
  -32.8864  -17.1852   25.8380 C   0  0  0  0  0  0  0  0  0  0  0  0
  -33.1599  -15.9819   25.2008 C   0  0  0  0  0  0  0  0  0  0  0  0
  2  1  1  1
  2  3  1  0
  2  6  1  0
  3  4  2  0
  3  5  1  0
  6  7  1  0
  7  8  1  0
  8  9  2  0
  8 10  1  0
 10 11  1  0
 11 12  1  0
 11 14  1  6
 12 13  2  0
 12 16  1  0
 14 15  1  0
 15 21  1  0
 16 17  1  0
 17 18  1  0
 18 19  2  0
 18 20  1  0
 21 22  1  0
 22 23  2  0
 22 30  1  0
 23 24  1  0
 24 25  2  0
 25 26  1  0
 25 29  1  0
 26 27  1  0
 26 28  2  0
 29 30  2  0
M  CHG  5   1   1   5  -1  20  -1  26   1  27  -1
M  END
$$$$
