7T0U_ligand
     RDKit          3D

 48 53  0  0  1  0  0  0  0  0999 V2000
  -55.3810    2.4874   29.8243 C   0  0  0  0  0  0  0  0  0  0  0  0
  -53.3792    2.2379   31.1174 C   0  0  0  0  0  0  0  0  0  0  0  0
  -52.2103    2.9159   31.6927 C   0  0  0  0  0  0  0  0  0  0  0  0
  -51.1400    2.5140   32.5346 C   0  0  0  0  0  0  0  0  0  0  0  0
  -50.7881    1.1942   33.1515 C   0  0  0  0  0  0  0  0  0  0  0  0
  -49.4426    0.9047   33.3619 C   0  0  0  0  0  0  0  0  0  0  0  0
  -49.0404   -0.2972   33.9235 C   0  0  0  0  0  0  0  0  0  0  0  0
  -49.9924   -1.2932   34.2347 C   0  0  0  0  0  0  0  0  0  0  0  0
  -51.3852   -1.0015   34.0833 C   0  0  0  0  0  0  0  0  0  0  0  0
  -52.5493   -1.9254   34.4581 C   0  0  0  0  0  0  0  0  0  0  0  0
  -51.7362    0.2561   33.5553 C   0  0  0  0  0  0  0  0  0  0  0  0
  -50.3587    3.6537   32.6963 C   0  0  0  0  0  0  0  0  0  0  0  0
  -50.2538    6.0289   31.9131 C   0  0  0  0  0  0  0  0  0  0  0  0
  -49.0438    6.1094   30.9739 C   0  0  0  0  0  0  0  0  0  0  0  0
  -47.0503    7.4743   30.4381 C   0  0  0  0  0  0  0  0  0  0  0  0
  -47.1272    7.3875   29.0399 C   0  0  0  0  0  0  0  0  0  0  0  0
  -46.0743    7.8433   28.2401 C   0  0  0  0  0  0  0  0  0  0  0  0
  -47.2030    7.0506   26.1223 C   0  0  1  0  0  0  0  0  0  0  0  0
  -48.3965    8.0023   25.8871 C   0  0  0  0  0  0  0  0  0  0  0  0
  -46.7563    6.3313   24.8265 C   0  0  0  0  0  0  0  0  0  0  0  0
  -45.4873    6.5769   22.6450 C   0  0  0  0  0  0  0  0  0  0  0  0
  -46.5709    6.1073   21.6702 C   0  0  0  0  0  0  0  0  0  0  0  0
  -44.9951    7.5010   21.5285 C   0  0  0  0  0  0  0  0  0  0  0  0
  -44.7738    7.8590   24.6989 C   0  0  0  0  0  0  0  0  0  0  0  0
  -45.2827    8.5673   25.9637 C   0  0  0  0  0  0  0  0  0  0  0  0
  -44.8790    8.4722   30.1504 C   0  0  0  0  0  0  0  0  0  0  0  0
  -45.8953    8.0435   31.0008 C   0  0  0  0  0  0  0  0  0  0  0  0
  -51.9947    4.2518   31.3601 C   0  0  0  0  0  0  0  0  0  0  0  0
  -53.8257    4.4482   30.0483 C   0  0  0  0  0  0  0  0  0  0  0  0
  -54.7249    5.2977   29.1267 C   0  0  0  0  0  0  0  0  0  0  0  0
  -55.9230    5.4568   29.6849 F   0  0  0  0  0  0  0  0  0  0  0  0
  -54.2141    6.5113   28.9155 F   0  0  0  0  0  0  0  0  0  0  0  0
  -54.8650    4.7018   27.9414 F   0  0  0  0  0  0  0  0  0  0  0  0
  -54.1447    3.1108   30.3389 N   0  0  0  0  0  0  0  0  0  0  0  0
  -52.2973   -3.1210   34.9934 N   0  0  0  0  0  0  0  0  0  0  0  0
  -50.8572    4.7063   31.9804 N   0  0  0  0  0  0  0  0  0  0  0  0
  -48.1202    7.0570   31.2584 N   0  0  0  0  0  0  0  0  0  0  0  0
  -46.0857    7.6998   26.8506 N   0  0  0  0  0  0  0  0  0  0  0  0
  -45.9731    7.2956   23.9188 N   0  0  2  0  0  0  0  0  0  0  0  0
  -44.9572    8.3785   28.8038 N   0  0  0  0  0  0  0  0  0  0  0  0
  -52.7723    5.0068   30.5436 N   0  0  0  0  0  0  0  0  0  0  0  0
  -53.6711    1.0517   31.2854 O   0  0  0  0  0  0  0  0  0  0  0  0
  -49.5486   -2.4189   34.6597 O   0  0  0  0  0  0  0  0  0  0  0  0
  -53.7164   -1.5846   34.2849 O   0  0  0  0  0  0  0  0  0  0  0  0
  -46.1785    7.1553   20.6951 O   0  0  0  0  0  0  0  0  0  0  0  0
  -48.9814    5.3498   30.0053 O   0  0  0  0  0  0  0  0  0  0  0  0
  -47.3379   -0.4485   34.2382 Cl  0  0  0  0  0  0  0  0  0  0  0  0
  -45.6806    8.2619   32.6971 Cl  0  0  0  0  0  0  0  0  0  0  0  0
  1 34  1  0
  2  3  1  0
  2 34  1  0
  2 42  2  0
  3  4  1  0
  3 28  2  0
  4  5  1  0
  4 12  2  0
  5  6  2  0
  5 11  1  0
  6  7  1  0
  7  8  2  0
  7 47  1  0
  8  9  1  0
  8 43  1  0
  9 10  1  0
  9 11  2  0
 10 35  1  0
 10 44  2  0
 12 36  1  0
 13 14  1  0
 13 36  1  0
 14 37  1  0
 14 46  2  0
 15 16  2  0
 15 27  1  0
 15 37  1  0
 16 17  1  0
 17 38  1  0
 17 40  2  0
 18 19  1  6
 18 20  1  0
 18 38  1  0
 20 39  1  0
 21 22  1  0
 21 23  1  0
 39 21  1  6
 22 45  1  0
 23 45  1  0
 24 25  1  0
 24 39  1  0
 25 38  1  0
 26 27  2  0
 26 40  1  0
 27 48  1  0
 28 36  1  0
 28 41  1  0
 29 30  1  0
 29 34  1  0
 29 41  2  0
 30 31  1  0
 30 32  1  0
 30 33  1  0
M  CHG  2  39   1  43  -1
M  END
$$$$
