1R55_ligand
     RDKit          3D

 23 22  0  0  1  0  0  0  0  0999 V2000
    9.2561   13.1440   24.4748 N   0  0  0  0  0  0  0  0  0  0  0  0
   11.0831   16.6990   24.3754 C   0  0  0  0  0  0  0  0  0  0  0  0
   11.2720   12.4720   22.5996 O   0  0  0  0  0  0  0  0  0  0  0  0
    9.4496   13.5208   25.7478 C   0  0  0  0  0  0  0  0  0  0  0  0
    7.6681   18.1207   29.1463 O   0  0  0  0  0  0  0  0  0  0  0  0
    9.4375   11.7720   23.9870 C   0  0  1  0  0  0  0  0  0  0  0  0
    8.2750   11.3109   23.0318 C   0  0  0  0  0  0  0  0  0  0  0  0
    8.1404   12.2192   21.7822 C   0  0  0  0  0  0  0  0  0  0  0  0
    8.4714    9.8464   22.5662 C   0  0  0  0  0  0  0  0  0  0  0  0
   10.8616   11.6378   23.4060 C   0  0  0  0  0  0  0  0  0  0  0  0
   12.9301   10.2940   23.3770 C   0  0  0  0  0  0  0  0  0  0  0  0
    7.8483   16.7816   28.8181 N   0  0  0  0  0  0  0  0  0  0  0  0
    7.5745   16.4230   27.5574 C   0  0  0  0  0  0  0  0  0  0  0  0
    7.1026   17.2003   26.7250 O   0  0  0  0  0  0  0  0  0  0  0  0
    7.9403   14.9913   27.1535 C   0  0  1  0  0  0  0  0  0  0  0  0
    6.7695   14.4015   26.6049 O   0  0  0  0  0  0  0  0  0  0  0  0
    9.1208   14.9743   26.1241 C   0  0  1  0  0  0  0  0  0  0  0  0
   10.4018   15.7143   26.6395 C   0  0  0  0  0  0  0  0  0  0  0  0
   11.5464   15.9183   25.6155 C   0  0  0  0  0  0  0  0  0  0  0  0
   12.7462   16.6187   26.2714 C   0  0  0  0  0  0  0  0  0  0  0  0
    9.8315   12.7491   26.6223 O   0  0  0  0  0  0  0  0  0  0  0  0
    6.9297   11.3712   23.8042 C   0  0  0  0  0  0  0  0  0  0  0  0
   11.5727   10.5787   23.8201 N   0  0  0  0  0  0  0  0  0  0  0  0
  1  4  1  0
  6  1  1  6
  2 19  1  0
  3 10  2  0
  4 17  1  0
  4 21  2  0
  5 12  1  0
  6  7  1  0
  6 10  1  0
  7  8  1  0
  7  9  1  0
  7 22  1  0
 10 23  1  0
 11 23  1  0
 12 13  1  0
 13 14  2  0
 13 15  1  0
 15 16  1  6
 15 17  1  0
 17 18  1  1
 18 19  1  0
 19 20  1  0
M  END
$$$$
