1JLA_ligand
     RDKit          3D

 27 29  0  0  1  0  0  0  0  0999 V2000
   -1.4436  -34.4279   26.9189 C   0  0  0  0  0  0  0  0  0  0  0  0
   -2.1513  -33.8339   27.9682 C   0  0  0  0  0  0  0  0  0  0  0  0
   -1.5289  -32.8964   28.7872 C   0  0  0  0  0  0  0  0  0  0  0  0
   -0.1987  -32.5603   28.5539 C   0  0  0  0  0  0  0  0  0  0  0  0
    0.5076  -33.1225   27.4963 C   0  0  0  0  0  0  0  0  0  0  0  0
   -0.1192  -34.0531   26.6752 C   0  0  0  0  0  0  0  0  0  0  0  0
   -1.8041  -35.5863   24.5950 C   0  0  0  0  0  0  0  0  0  0  0  0
   -2.5170  -34.6822   23.7839 N   0  0  0  0  0  0  0  0  0  0  0  0
   -2.4070  -34.6953   22.4087 C   0  0  0  0  0  0  0  0  0  0  0  0
   -3.0095  -33.9859   21.6003 O   0  0  0  0  0  0  0  0  0  0  0  0
   -1.5362  -35.6186   21.9395 N   0  0  0  0  0  0  0  0  0  0  0  0
   -0.7822  -36.5300   22.5872 C   0  0  0  0  0  0  0  0  0  0  0  0
   -0.0495  -37.2734   21.9314 O   0  0  0  0  0  0  0  0  0  0  0  0
   -0.9604  -36.5216   24.0420 C   0  0  0  0  0  0  0  0  0  0  0  0
   -2.1098  -35.5340   26.1042 C   0  0  0  0  0  0  0  0  0  0  0  0
   -0.1887  -37.6495   24.7806 C   0  0  0  0  0  0  0  0  0  0  0  0
   -1.0874  -38.7552   25.3488 C   0  0  0  0  0  0  0  0  0  0  0  0
    0.8694  -37.1861   25.7839 C   0  0  0  0  0  0  0  0  0  0  0  0
   -3.5318  -33.7581   24.2830 C   0  0  0  0  0  0  0  0  0  0  0  0
   -4.7811  -34.2781   23.9276 O   0  0  0  0  0  0  0  0  0  0  0  0
   -5.8563  -34.0584   24.8257 C   0  0  0  0  0  0  0  0  0  0  0  0
   -7.0288  -34.9787   24.5137 C   0  0  0  0  0  0  0  0  0  0  0  0
   -6.9750  -35.9080   23.4666 C   0  0  0  0  0  0  0  0  0  0  0  0
   -8.0374  -36.7815   23.2543 C   0  0  0  0  0  0  0  0  0  0  0  0
   -9.1579  -36.7154   24.0772 C   0  0  0  0  0  0  0  0  0  0  0  0
   -9.2325  -35.7741   25.1009 C   0  0  0  0  0  0  0  0  0  0  0  0
   -8.1674  -34.9057   25.3197 C   0  0  0  0  0  0  0  0  0  0  0  0
  1  2  2  0
  1  6  1  0
  1 15  1  0
  2  3  1  0
  3  4  2  0
  4  5  1  0
  5  6  2  0
  7  8  1  0
  7 14  2  0
  7 15  1  0
  8  9  1  0
  8 19  1  0
  9 10  2  0
  9 11  1  0
 11 12  1  0
 12 13  2  0
 12 14  1  0
 14 16  1  0
 16 17  1  0
 16 18  1  0
 19 20  1  0
 20 21  1  0
 21 22  1  0
 22 23  2  0
 22 27  1  0
 23 24  1  0
 24 25  2  0
 25 26  1  0
 26 27  2  0
M  END
$$$$
