1IA1_ligand
     RDKit          3D

 19 21  0  0  1  0  0  0  0  0999 V2000
    8.0368   36.5970   19.3494 C   0  0  0  0  0  0  0  0  0  0  0  0
    9.0631   35.7389   18.8272 C   0  0  0  0  0  0  0  0  0  0  0  0
    8.5915   34.4771   18.2881 C   0  0  0  0  0  0  0  0  0  0  0  0
    7.2944   34.0865   18.3243 N   0  0  0  0  0  0  0  0  0  0  0  0
    6.4095   34.9408   18.8673 C   0  0  0  0  0  0  0  0  0  0  0  0
    6.7421   36.1443   19.3304 N   0  0  0  0  0  0  0  0  0  0  0  0
    9.3956   33.5143   17.6910 N   0  0  0  0  0  0  0  0  0  0  0  0
    8.3104   37.8572   19.9180 C   0  0  0  0  0  0  0  0  0  0  0  0
    9.6270   38.2835   20.0132 C   0  0  0  0  0  0  0  0  0  0  0  0
   10.6623   37.4894   19.5398 C   0  0  0  0  0  0  0  0  0  0  0  0
   10.4113   36.2493   18.9427 C   0  0  0  0  0  0  0  0  0  0  0  0
    5.0907   34.4854   18.9745 N   0  0  0  0  0  0  0  0  0  0  0  0
   11.7592   35.2114   18.4045 S   0  0  0  0  0  0  0  0  0  0  0  0
   13.1015   36.3200   18.1188 C   0  0  0  0  0  0  0  0  0  0  0  0
   12.9597   37.3924   17.2359 C   0  0  0  0  0  0  0  0  0  0  0  0
   14.0307   38.2554   17.0283 C   0  0  0  0  0  0  0  0  0  0  0  0
   15.2365   38.0339   17.6908 C   0  0  0  0  0  0  0  0  0  0  0  0
   15.3772   36.9539   18.5598 C   0  0  0  0  0  0  0  0  0  0  0  0
   14.3063   36.0978   18.7799 C   0  0  0  0  0  0  0  0  0  0  0  0
  1  2  1  0
  1  6  2  0
  1  8  1  0
  2  3  2  0
  2 11  1  0
  3  4  1  0
  3  7  1  0
  4  5  2  0
  5  6  1  0
  5 12  1  0
  8  9  2  0
  9 10  1  0
 10 11  2  0
 11 13  1  0
 13 14  1  0
 14 15  2  0
 14 19  1  0
 15 16  1  0
 16 17  2  0
 17 18  1  0
 18 19  2  0
M  CHG  1   6   1
M  END
$$$$
