7P1F_ligand
     RDKit          3D

 17 17  0  0  1  0  0  0  0  0999 V2000
    9.8410   -8.7639   16.5519 C   0  0  0  0  0  0  0  0  0  0  0  0
   11.9551   -9.9448   15.6495 C   0  0  0  0  0  0  0  0  0  0  0  0
   12.7927  -11.1699   15.3569 C   0  0  1  0  0  0  0  0  0  0  0  0
   11.8506  -12.3740   15.1676 C   0  0  2  0  0  0  0  0  0  0  0  0
   10.7922  -12.4254   16.3053 C   0  0  2  0  0  0  0  0  0  0  0  0
    9.7167  -13.5168   16.0958 C   0  0  1  0  0  0  0  0  0  0  0  0
    8.7320  -13.6810   17.2885 C   0  0  1  0  0  0  0  0  0  0  0  0
    7.6157  -14.7230   17.0538 C   0  0  0  0  0  0  0  0  0  0  0  0
   12.5770  -13.5833   15.0617 O   0  0  0  0  0  0  0  0  0  0  0  0
    8.6976   -8.9989   17.0115 O   0  0  0  0  0  0  0  0  0  0  0  0
   10.3718   -7.6449   16.3863 O   0  0  0  0  0  0  0  0  0  0  0  0
   13.5985  -10.9555   14.2221 O   0  0  0  0  0  0  0  0  0  0  0  0
   10.0869  -11.1906   16.5179 O   0  0  0  0  0  0  0  0  0  0  0  0
   10.7092  -10.0215   16.1826 C   0  0  0  0  0  0  0  0  0  0  0  0
    8.9968  -13.1984   14.9189 O   0  0  0  0  0  0  0  0  0  0  0  0
    9.4206  -14.0002   18.4894 O   0  0  0  0  0  0  0  0  0  0  0  0
    8.1618  -15.9969   16.7769 O   0  0  0  0  0  0  0  0  0  0  0  0
  1 10  1  0
  1 11  2  0
  1 14  1  0
  2  3  1  0
  2 14  2  0
  3  4  1  0
  3 12  1  6
  4  5  1  0
  4  9  1  1
  5  6  1  0
  5 13  1  6
  6  7  1  0
  6 15  1  6
  7  8  1  0
  7 16  1  1
  8 17  1  0
 13 14  1  0
M  CHG  1  10  -1
M  END
$$$$
