7LZD_ligand
     RDKit          3D

 29 32  0  0  1  0  0  0  0  0999 V2000
  -11.3713   35.4007    9.2945 C   0  0  0  0  0  0  0  0  0  0  0  0
  -10.0149   35.0567    9.9485 N   0  0  0  0  0  0  0  0  0  0  0  0
  -10.0521   35.4724   11.4368 C   0  0  0  0  0  0  0  0  0  0  0  0
   -9.5694   33.5800    9.7298 C   0  0  0  0  0  0  0  0  0  0  0  0
   -8.1706   33.3382   10.3081 C   0  0  0  0  0  0  0  0  0  0  0  0
   -7.6621   31.9073   10.0629 C   0  0  0  0  0  0  0  0  0  0  0  0
   -8.9908   31.7942    7.9806 C   0  0  0  0  0  0  0  0  0  0  0  0
   -7.7551   31.3743    8.6825 N   0  0  0  0  0  0  0  0  0  0  0  0
   -9.4972   33.2283    8.2368 C   0  0  0  0  0  0  0  0  0  0  0  0
   -7.1327   30.1568    8.3542 C   0  0  0  0  0  0  0  0  0  0  0  0
   -6.1280   29.6042    9.1738 C   0  0  0  0  0  0  0  0  0  0  0  0
   -5.4863   28.4065    8.8566 C   0  0  0  0  0  0  0  0  0  0  0  0
   -5.8176   27.7458    7.6672 C   0  0  0  0  0  0  0  0  0  0  0  0
   -6.8121   28.2591    6.8415 C   0  0  0  0  0  0  0  0  0  0  0  0
   -7.4607   29.4457    7.1826 C   0  0  0  0  0  0  0  0  0  0  0  0
   -4.5132   27.9315    9.7547 N   0  0  0  0  0  0  0  0  0  0  0  0
   -4.2892   26.6373   10.0655 C   0  0  0  0  0  0  0  0  0  0  0  0
   -4.9221   25.6901    9.5981 O   0  0  0  0  0  0  0  0  0  0  0  0
   -3.2418   26.4063   11.0235 C   0  0  0  0  0  0  0  0  0  0  0  0
   -2.6019   27.2713   11.9032 C   0  0  0  0  0  0  0  0  0  0  0  0
   -1.6161   26.5207   12.6236 C   0  0  0  0  0  0  0  0  0  0  0  0
   -1.7334   25.1683   12.1893 C   0  0  0  0  0  0  0  0  0  0  0  0
   -0.9276   24.1349   12.6804 C   0  0  0  0  0  0  0  0  0  0  0  0
   -1.0060   22.6855   12.2323 C   0  0  0  0  0  0  0  0  0  0  0  0
   -0.0071   24.5029   13.6653 C   0  0  0  0  0  0  0  0  0  0  0  0
    0.1362   25.8124   14.1112 C   0  0  0  0  0  0  0  0  0  0  0  0
   -0.6529   26.8354   13.5950 C   0  0  0  0  0  0  0  0  0  0  0  0
   -0.5016   28.1024   14.0435 F   0  0  0  0  0  0  0  0  0  0  0  0
   -2.7438   25.1456   11.2568 N   0  0  0  0  0  0  0  0  0  0  0  0
  1  2  1  0
  2  3  1  0
  2  4  1  0
  4  5  1  0
  4  9  1  0
  5  6  1  0
  6  8  1  0
  7  8  1  0
  7  9  1  0
  8 10  1  0
 10 11  2  0
 10 15  1  0
 11 12  1  0
 12 13  2  0
 12 16  1  0
 13 14  1  0
 14 15  2  0
 16 17  1  0
 17 18  2  0
 17 19  1  0
 19 20  2  0
 19 29  1  0
 20 21  1  0
 21 22  2  0
 21 27  1  0
 22 23  1  0
 22 29  1  0
 23 24  1  0
 23 25  2  0
 25 26  1  0
 26 27  2  0
 27 28  1  0
M  CHG  1   2   1
M  END
$$$$
