7MZS_ligand
     RDKit          3D

 12 12  0  0  1  0  0  0  0  0999 V2000
  -13.8914  -19.5351   17.9185 C   0  0  1  0  0  0  0  0  0  0  0  0
  -12.5115  -20.2065   17.7347 C   0  0  1  0  0  0  0  0  0  0  0  0
  -11.6120  -19.9872   18.9670 C   0  0  2  0  0  0  0  0  0  0  0  0
  -11.5638  -18.5037   19.3727 C   0  0  2  0  0  0  0  0  0  0  0  0
  -13.0068  -17.9630   19.5169 C   0  0  1  0  0  0  0  0  0  0  0  0
  -13.0441  -16.4712   19.9059 C   0  0  0  0  0  0  0  0  0  0  0  0
  -14.6319  -20.2521   18.8315 O   0  0  0  0  0  0  0  0  0  0  0  0
  -12.6069  -21.5854   17.4329 O   0  0  0  0  0  0  0  0  0  0  0  0
  -10.3208  -20.5476   18.7876 O   0  0  0  0  0  0  0  0  0  0  0  0
  -10.7735  -17.7370   18.4794 O   0  0  0  0  0  0  0  0  0  0  0  0
  -13.7416  -18.1838   18.2966 O   0  0  0  0  0  0  0  0  0  0  0  0
  -14.3617  -16.0584   20.2028 O   0  0  0  0  0  0  0  0  0  0  0  0
  1  2  1  0
  1  7  1  1
  1 11  1  0
  2  3  1  0
  2  8  1  1
  3  4  1  0
  3  9  1  6
  4  5  1  0
  4 10  1  6
  5  6  1  6
  5 11  1  0
  6 12  1  0
M  END
$$$$
