7VBU_ligand
     RDKit          3D

 17 20  0  0  1  0  0  0  0  0999 V2000
   35.5142   39.2402   62.6050 C   0  0  0  0  0  0  0  0  0  0  0  0
   35.4911   38.6066   63.8438 C   0  0  0  0  0  0  0  0  0  0  0  0
   34.8025   37.4128   64.0274 C   0  0  0  0  0  0  0  0  0  0  0  0
   34.8313   38.7497   61.4852 C   0  0  0  0  0  0  0  0  0  0  0  0
   34.1254   37.5532   61.6840 C   0  0  0  0  0  0  0  0  0  0  0  0
   34.1180   36.8666   62.9341 C   0  0  0  0  0  0  0  0  0  0  0  0
   34.8841   39.4967   60.1561 C   0  0  0  0  0  0  0  0  0  0  0  0
   35.5646   40.8323   59.9281 C   0  0  0  0  0  0  0  0  0  0  0  0
   34.0576   40.7328   59.8986 C   0  0  0  0  0  0  0  0  0  0  0  0
   32.8847   35.6831   61.4425 C   0  0  0  0  0  0  0  0  0  0  0  0
   33.3838   35.6825   62.7644 C   0  0  0  0  0  0  0  0  0  0  0  0
   33.0777   34.5828   63.5840 C   0  0  0  0  0  0  0  0  0  0  0  0
   32.3066   33.5571   63.0315 C   0  0  0  0  0  0  0  0  0  0  0  0
   31.8422   33.6780   61.7173 C   0  0  0  0  0  0  0  0  0  0  0  0
   30.9791   32.5973   61.0940 C   0  0  0  0  0  0  0  0  0  0  0  0
   32.1121   34.7363   60.9064 N   0  0  0  0  0  0  0  0  0  0  0  0
   33.3557   36.8111   60.8059 N   0  0  0  0  0  0  0  0  0  0  0  0
  1  2  2  0
  1  4  1  0
  2  3  1  0
  3  6  2  0
  4  5  2  0
  4  7  1  0
  5  6  1  0
  5 17  1  0
  6 11  1  0
  7  8  1  0
  7  9  1  0
  8  9  1  0
 10 11  2  0
 10 16  1  0
 10 17  1  0
 11 12  1  0
 12 13  2  0
 13 14  1  0
 14 15  1  0
 14 16  2  0
M  END
$$$$
