8EAB_ligand
     RDKit          3D

 49 53  0  0  1  0  0  0  0  0999 V2000
   13.3787  -19.2568   21.4377 C   0  0  0  0  0  0  0  0  0  0  0  0
   12.9093  -18.0498   20.9217 C   0  0  0  0  0  0  0  0  0  0  0  0
   11.5635  -17.9062   20.5667 C   0  0  0  0  0  0  0  0  0  0  0  0
   11.1296  -16.6264   19.9251 C   0  0  0  0  0  0  0  0  0  0  0  0
   11.5095  -15.3985   20.4760 C   0  0  0  0  0  0  0  0  0  0  0  0
   11.1691  -14.2022   19.8538 C   0  0  0  0  0  0  0  0  0  0  0  0
   10.4391  -14.2082   18.6623 C   0  0  0  0  0  0  0  0  0  0  0  0
   10.0440  -15.4293   18.1104 C   0  0  0  0  0  0  0  0  0  0  0  0
   10.3902  -16.6246   18.7358 C   0  0  0  0  0  0  0  0  0  0  0  0
    4.8535  -19.0171   21.7024 C   0  0  0  0  0  0  0  0  0  0  0  0
   10.0821  -12.9036   17.9501 C   0  0  0  0  0  0  0  0  0  0  0  0
    6.5920  -17.4855   19.5356 C   0  0  0  0  0  0  0  0  0  0  0  0
    6.4620  -17.9524   18.2231 C   0  0  0  0  0  0  0  0  0  0  0  0
    6.0702  -17.0932   17.1988 C   0  0  0  0  0  0  0  0  0  0  0  0
    5.8079  -15.7525   17.4751 C   0  0  0  0  0  0  0  0  0  0  0  0
    5.9363  -15.2594   18.7806 C   0  0  0  0  0  0  0  0  0  0  0  0
    6.3283  -16.1330   19.8026 C   0  0  0  0  0  0  0  0  0  0  0  0
    5.6553  -13.7926   19.0999 C   0  0  0  0  0  0  0  0  0  0  0  0
    3.8835  -18.7738   22.8193 C   0  0  0  0  0  0  0  0  0  0  0  0
    4.2675  -18.9548   24.1533 C   0  0  0  0  0  0  0  0  0  0  0  0
    2.1049  -18.5976   24.9094 C   0  0  0  0  0  0  0  0  0  0  0  0
    1.6450  -18.3814   23.6121 C   0  0  0  0  0  0  0  0  0  0  0  0
    2.5378  -18.4493   22.5403 C   0  0  0  0  0  0  0  0  0  0  0  0
    6.9997  -18.4488   20.6343 C   0  0  1  0  0  0  0  0  0  0  0  0
    2.0590  -18.1677   21.1559 C   0  0  0  0  0  0  0  0  0  0  0  0
    1.2208  -19.0685   20.4962 C   0  0  0  0  0  0  0  0  0  0  0  0
    0.8700  -18.8506   19.1672 C   0  0  0  0  0  0  0  0  0  0  0  0
    1.3160  -17.7116   18.4910 C   0  0  0  0  0  0  0  0  0  0  0  0
    2.1499  -16.8072   19.1505 C   0  0  0  0  0  0  0  0  0  0  0  0
    2.5263  -17.0419   20.4679 C   0  0  0  0  0  0  0  0  0  0  0  0
    0.9070  -17.4429   17.0442 C   0  0  0  0  0  0  0  0  0  0  0  0
    8.4456  -18.2000   21.0898 C   0  0  0  0  0  0  0  0  0  0  0  0
   10.7227  -19.0207   20.7922 C   0  0  0  0  0  0  0  0  0  0  0  0
   11.2784  -20.2102   21.2730 C   0  0  0  0  0  0  0  0  0  0  0  0
   10.5760  -11.8299   18.5705 F   0  0  0  0  0  0  0  0  0  0  0  0
   10.5658  -12.9200   16.7069 F   0  0  0  0  0  0  0  0  0  0  0  0
    8.7573  -12.7756   17.8951 F   0  0  0  0  0  0  0  0  0  0  0  0
    5.6121  -13.0425   17.9983 F   0  0  0  0  0  0  0  0  0  0  0  0
    4.4779  -13.6986   19.7176 F   0  0  0  0  0  0  0  0  0  0  0  0
    6.5999  -13.2968   19.9000 F   0  0  0  0  0  0  0  0  0  0  0  0
    0.3187  -18.4993   16.4790 F   0  0  0  0  0  0  0  0  0  0  0  0
    0.0465  -16.4248   17.0217 F   0  0  0  0  0  0  0  0  0  0  0  0
    1.9737  -17.1206   16.3107 F   0  0  0  0  0  0  0  0  0  0  0  0
   12.5846  -20.3391   21.6055 N   0  0  0  0  0  0  0  0  0  0  0  0
    6.0426  -18.3892   21.7494 N   0  0  0  0  0  0  0  0  0  0  0  0
    3.4006  -18.8708   25.1922 N   0  0  0  0  0  0  0  0  0  0  0  0
    9.3502  -19.0352   20.5488 N   0  0  0  0  0  0  0  0  0  0  0  0
    4.5095  -19.7360   20.7668 O   0  0  0  0  0  0  0  0  0  0  0  0
    8.7027  -17.2762   21.8625 O   0  0  0  0  0  0  0  0  0  0  0  0
  1  2  2  0
  1 44  1  0
  2  3  1  0
  3  4  1  0
  3 33  2  0
  4  5  2  0
  4  9  1  0
  5  6  1  0
  6  7  2  0
  7  8  1  0
  7 11  1  0
  8  9  2  0
 10 19  1  0
 10 45  1  0
 10 48  2  0
 11 35  1  0
 11 36  1  0
 11 37  1  0
 12 13  2  0
 12 17  1  0
 12 24  1  0
 13 14  1  0
 14 15  2  0
 15 16  1  0
 16 17  2  0
 16 18  1  0
 18 38  1  0
 18 39  1  0
 18 40  1  0
 19 20  2  0
 19 23  1  0
 20 46  1  0
 21 22  1  0
 21 46  2  0
 22 23  2  0
 23 25  1  0
 24 32  1  0
 24 45  1  1
 25 26  2  0
 25 30  1  0
 26 27  1  0
 27 28  2  0
 28 29  1  0
 28 31  1  0
 29 30  2  0
 31 41  1  0
 31 42  1  0
 31 43  1  0
 32 47  1  0
 32 49  2  0
 33 34  1  0
 33 47  1  0
 34 44  2  0
M  END
$$$$
