7UAS_ligand
     RDKit          3D

 40 45  0  0  1  0  0  0  0  0999 V2000
    5.2621  -30.2056   23.2168 C   0  0  0  0  0  0  0  0  0  0  0  0
    7.7318  -28.3821   22.4196 C   0  0  0  0  0  0  0  0  0  0  0  0
    8.1081  -31.8375   21.6976 C   0  0  0  0  0  0  0  0  0  0  0  0
    0.4894  -32.9823   25.6552 C   0  0  0  0  0  0  0  0  0  0  0  0
    1.8479  -37.5070   24.5880 C   0  0  0  0  0  0  0  0  0  0  0  0
    3.1090  -38.3435   24.8426 C   0  0  0  0  0  0  0  0  0  0  0  0
    4.3021  -31.0096   31.9041 C   0  0  0  0  0  0  0  0  0  0  0  0
    5.5208  -30.9569   32.8127 C   0  0  0  0  0  0  0  0  0  0  0  0
    9.4378  -33.2802   31.8213 C   0  0  0  0  0  0  0  0  0  0  0  0
    8.6357  -32.3676   29.3599 C   0  0  0  0  0  0  0  0  0  0  0  0
    5.1530  -33.3223   28.9520 C   0  0  0  0  0  0  0  0  0  0  0  0
    6.3939  -31.6558   30.4078 C   0  0  1  0  0  0  0  0  0  0  0  0
    5.7234  -31.0398   28.1198 C   0  0  0  0  0  0  0  0  0  0  0  0
    5.0928  -31.4655   26.8116 C   0  0  0  0  0  0  0  0  0  0  0  0
    4.2685  -32.5926   26.6965 C   0  0  0  0  0  0  0  0  0  0  0  0
    3.9864  -33.4049   27.9482 C   0  0  0  0  0  0  0  0  0  0  0  0
    3.7464  -32.9186   25.4317 C   0  0  0  0  0  0  0  0  0  0  0  0
    4.0512  -32.1405   24.3132 C   0  0  0  0  0  0  0  0  0  0  0  0
    4.8582  -31.0136   24.4390 C   0  0  0  0  0  0  0  0  0  0  0  0
    5.3382  -30.6615   25.6937 C   0  0  0  0  0  0  0  0  0  0  0  0
    7.6235  -29.8846   22.2753 C   0  0  0  0  0  0  0  0  0  0  0  0
    6.8417  -31.9166   22.2409 C   0  0  0  0  0  0  0  0  0  0  0  0
    1.4418  -34.1126   25.3274 C   0  0  0  0  0  0  0  0  0  0  0  0
    2.8445  -34.0778   25.2371 C   0  0  0  0  0  0  0  0  0  0  0  0
    3.2088  -35.3786   24.9696 C   0  0  0  0  0  0  0  0  0  0  0  0
    5.4850  -31.9024   31.6417 C   0  0  0  0  0  0  0  0  0  0  0  0
   10.3189  -33.3882   30.7476 C   0  0  0  0  0  0  0  0  0  0  0  0
    7.7990  -32.2879   30.4854 C   0  0  0  0  0  0  0  0  0  0  0  0
    9.9093  -32.9303   29.4923 C   0  0  0  0  0  0  0  0  0  0  0  0
   10.8489  -33.0024   28.3001 C   0  0  0  0  0  0  0  0  0  0  0  0
    0.1396  -32.3266   24.5500 F   0  0  0  0  0  0  0  0  0  0  0  0
    1.0477  -32.1093   26.4932 F   0  0  0  0  0  0  0  0  0  0  0  0
   -0.6223  -33.4275   26.2411 F   0  0  0  0  0  0  0  0  0  0  0  0
    5.6649  -31.9446   29.1468 N   0  0  0  0  0  0  0  0  0  0  0  0
    8.5776  -30.6104   21.7451 N   0  0  0  0  0  0  0  0  0  0  0  0
    6.5250  -30.6406   22.6336 N   0  0  0  0  0  0  0  0  0  0  0  0
    0.9742  -35.3170   25.0678 N   0  0  0  0  0  0  0  0  0  0  0  0
    2.0452  -36.0925   24.8829 N   0  0  0  0  0  0  0  0  0  0  0  0
    8.1988  -32.7443   31.7045 N   0  0  0  0  0  0  0  0  0  0  0  0
    6.2466  -29.9345   28.2645 O   0  0  0  0  0  0  0  0  0  0  0  0
  1 19  1  0
  1 36  1  0
  2 21  1  0
  3 22  2  0
  3 35  1  0
  4 23  1  0
  4 31  1  0
  4 32  1  0
  4 33  1  0
  5  6  1  0
  5 38  1  0
  7  8  1  0
  7 26  1  0
  8 26  1  0
  9 27  2  0
  9 39  1  0
 10 28  1  0
 10 29  2  0
 11 16  1  0
 11 34  1  0
 12 26  1  1
 12 28  1  0
 12 34  1  0
 13 14  1  0
 13 34  1  0
 13 40  2  0
 14 15  2  0
 14 20  1  0
 15 16  1  0
 15 17  1  0
 17 18  2  0
 17 24  1  0
 18 19  1  0
 19 20  2  0
 21 35  2  0
 21 36  1  0
 22 36  1  0
 23 24  1  0
 23 37  2  0
 24 25  2  0
 25 38  1  0
 27 29  1  0
 28 39  2  0
 29 30  1  0
 37 38  1  0
M  END
$$$$
