1N2V_ligand
     RDKit          3D

 15 16  0  0  1  0  0  0  0  0999 V2000
   15.4480   16.6162   20.4763 N   0  0  0  0  0  0  0  0  0  0  0  0
   16.5989   16.9279   19.8064 C   0  0  0  0  0  0  0  0  0  0  0  0
   16.7071   16.8149   18.3063 C   0  0  0  0  0  0  0  0  0  0  0  0
   15.9205   17.9202   17.5839 C   0  0  0  0  0  0  0  0  0  0  0  0
   16.0534   17.8714   16.0546 C   0  0  0  0  0  0  0  0  0  0  0  0
   15.2618   18.9781   15.3494 C   0  0  0  0  0  0  0  0  0  0  0  0
   17.5515   17.3440   20.6142 N   0  0  0  0  0  0  0  0  0  0  0  0
   17.0189   17.3123   21.8279 C   0  0  0  0  0  0  0  0  0  0  0  0
   17.6484   17.7029   23.0708 C   0  0  0  0  0  0  0  0  0  0  0  0
   16.7548   17.5083   24.0845 N   0  0  0  0  0  0  0  0  0  0  0  0
   15.4301   17.0432   24.0998 N   0  0  0  0  0  0  0  0  0  0  0  0
   14.8617   16.6865   22.9463 C   0  0  0  0  0  0  0  0  0  0  0  0
   13.7223   16.2441   22.8386 O   0  0  0  0  0  0  0  0  0  0  0  0
   15.7063   16.8537   21.7922 C   0  0  0  0  0  0  0  0  0  0  0  0
   18.7708   18.1564   23.2698 O   0  0  0  0  0  0  0  0  0  0  0  0
  1  2  1  0
  1 14  1  0
  2  3  1  0
  2  7  2  0
  3  4  1  0
  4  5  1  0
  5  6  1  0
  7  8  1  0
  8  9  1  0
  8 14  2  0
  9 10  1  0
  9 15  2  0
 10 11  1  0
 11 12  1  0
 12 13  2  0
 12 14  1  0
M  CHG  1  11  -1
M  END
$$$$
