1V0P_ligand
     RDKit          3D

 30 32  0  0  1  0  0  0  0  0999 V2000
   30.4307   28.9274   -5.1543 N   0  0  0  0  0  0  0  0  0  0  0  0
   25.9549   29.1446   -2.4562 C   0  0  0  0  0  0  0  0  0  0  0  0
   26.8325   29.7353   -3.4718 N   0  0  0  0  0  0  0  0  0  0  0  0
   28.0739   29.3103   -3.9009 C   0  0  0  0  0  0  0  0  0  0  0  0
   28.8060   28.2722   -3.4809 N   0  0  0  0  0  0  0  0  0  0  0  0
   29.9767   28.1335   -4.1521 C   0  0  0  0  0  0  0  0  0  0  0  0
   29.6697   29.9740   -5.5593 C   0  0  0  0  0  0  0  0  0  0  0  0
   28.4351   30.2110   -4.9348 C   0  0  0  0  0  0  0  0  0  0  0  0
   27.4689   31.1622   -5.1235 N   0  0  0  0  0  0  0  0  0  0  0  0
   26.5636   30.8575   -4.2281 C   0  0  0  0  0  0  0  0  0  0  0  0
   30.1083   30.7425   -6.6461 N   0  0  0  0  0  0  0  0  0  0  0  0
   31.3011   30.6021   -7.3693 C   0  0  0  0  0  0  0  0  0  0  0  0
   31.2433   30.5425   -8.7602 C   0  0  0  0  0  0  0  0  0  0  0  0
   32.3857   30.2288   -9.4923 C   0  0  0  0  0  0  0  0  0  0  0  0
   33.6164   30.0149   -8.8524 C   0  0  0  0  0  0  0  0  0  0  0  0
   33.6907   30.1848   -7.4553 C   0  0  0  0  0  0  0  0  0  0  0  0
   35.1787   30.0445   -6.5816 Cl  0  0  0  0  0  0  0  0  0  0  0  0
   32.5348   30.4644   -6.7271 C   0  0  0  0  0  0  0  0  0  0  0  0
   34.8035   29.6234   -9.6706 C   0  0  0  0  0  0  0  0  0  0  0  0
   35.2285   30.4555  -10.5030 O   0  0  0  0  0  0  0  0  0  0  0  0
   35.2807   28.4797   -9.4885 O   0  0  0  0  0  0  0  0  0  0  0  0
   30.7585   27.0400   -3.7666 N   0  0  0  0  0  0  0  0  0  0  0  0
   32.1393   26.8629   -4.2322 C   0  0  2  0  0  0  0  0  0  0  0  0
   32.6555   25.4154   -4.0147 C   0  0  0  0  0  0  0  0  0  0  0  0
   32.0644   24.4468   -5.0497 C   0  0  0  0  0  0  0  0  0  0  0  0
   32.4485   24.8731   -2.5861 C   0  0  0  0  0  0  0  0  0  0  0  0
   33.1129   27.9344   -3.6875 C   0  0  0  0  0  0  0  0  0  0  0  0
   33.1051   28.0031   -2.2794 O   0  0  0  0  0  0  0  0  0  0  0  0
   25.5685   27.7054   -2.8482 C   0  0  0  0  0  0  0  0  0  0  0  0
   26.6078   29.2130   -1.0666 C   0  0  0  0  0  0  0  0  0  0  0  0
  1  6  2  0
  1  7  1  0
  2  3  1  0
  2 29  1  0
  2 30  1  0
  3  4  1  0
  3 10  1  0
  4  5  2  0
  4  8  1  0
  5  6  1  0
  6 22  1  0
  7  8  2  0
  7 11  1  0
  8  9  1  0
  9 10  2  0
 11 12  1  0
 12 13  2  0
 12 18  1  0
 13 14  1  0
 14 15  2  0
 15 16  1  0
 15 19  1  0
 16 17  1  0
 16 18  2  0
 19 20  1  0
 19 21  2  0
 22 23  1  0
 23 24  1  0
 23 27  1  1
 24 25  1  0
 24 26  1  0
 27 28  1  0
M  CHG  1  20  -1
M  END
$$$$
