6XHT_ligand
     RDKit          3D

 34 35  0  0  1  0  0  0  0  0999 V2000
   11.9706   -4.2292  111.2598 C   0  0  0  0  0  0  0  0  0  0  0  0
   12.3801   -4.9970  110.2394 C   0  0  0  0  0  0  0  0  0  0  0  0
   13.4939   -3.1701  109.1736 C   0  0  0  0  0  0  0  0  0  0  0  0
   12.4303   -2.8732  111.2716 C   0  0  0  0  0  0  0  0  0  0  0  0
   13.7569   -5.4789  108.2861 C   0  0  2  0  0  0  0  0  0  0  0  0
   14.5550   -6.6571  108.8507 C   0  0  1  0  0  0  0  0  0  0  0  0
   14.4926   -7.6252  107.6773 C   0  0  1  0  0  0  0  0  0  0  0  0
   13.1508   -7.3069  106.9997 C   0  0  1  0  0  0  0  0  0  0  0  0
   12.0332   -8.3143  107.3080 C   0  0  0  0  0  0  0  0  0  0  0  0
    8.1803   -9.0466  106.0811 C   0  0  0  0  0  0  0  0  0  0  0  0
    7.2561   -9.4928  104.9248 C   0  0  2  0  0  0  0  0  0  0  0  0
    7.8966   -9.4590  103.5129 C   0  0  2  0  0  0  0  0  0  0  0  0
    7.0000   -9.9425  102.3340 C   0  0  2  0  0  0  0  0  0  0  0  0
    6.0341   -8.8660  101.8033 C   0  0  0  0  0  0  0  0  0  0  0  0
   13.1989   -4.5243  109.2426 N   0  0  0  0  0  0  0  0  0  0  0  0
   13.1140   -2.3943  110.2909 N   0  0  0  0  0  0  0  0  0  0  0  0
   12.1596   -2.1297  112.3503 N   0  0  0  0  0  0  0  0  0  0  0  0
   14.0765   -2.7162  108.1898 O   0  0  0  0  0  0  0  0  0  0  0  0
   12.7503   -6.0358  107.5025 O   0  0  0  0  0  0  0  0  0  0  0  0
   11.9042   -8.4453  108.7160 O   0  0  0  0  0  0  0  0  0  0  0  0
   11.1727   -9.8230  110.8259 O   0  0  0  0  0  0  0  0  0  0  0  0
   12.1316  -11.0727  108.6850 O   0  0  0  0  0  0  0  0  0  0  0  0
    9.8117   -9.8832  108.5984 O   0  0  0  0  0  0  0  0  0  0  0  0
    7.5634   -9.7377  109.8833 O   0  0  0  0  0  0  0  0  0  0  0  0
    8.6180   -7.5757  108.7714 O   0  0  0  0  0  0  0  0  0  0  0  0
    7.5914   -9.4926  107.2883 O   0  0  0  0  0  0  0  0  0  0  0  0
    5.5099   -9.2545  100.5533 O   0  0  0  0  0  0  0  0  0  0  0  0
    6.2821  -11.1218  102.6694 O   0  0  0  0  0  0  0  0  0  0  0  0
    9.0422  -10.2780  103.5271 O   0  0  0  0  0  0  0  0  0  0  0  0
    6.1093   -8.6719  104.9212 O   0  0  0  0  0  0  0  0  0  0  0  0
   15.5910   -7.5298  106.7855 O   0  0  0  0  0  0  0  0  0  0  0  0
   15.8467   -6.2616  109.2706 O   0  0  0  0  0  0  0  0  0  0  0  0
   11.3464   -9.9513  109.3282 P   0  0  2  0  0  0  0  0  0  0  0  0
    8.3358   -9.0597  108.7762 P   0  0  1  0  0  0  0  0  0  0  0  0
  1  2  2  0
  1  4  1  0
  2 15  1  0
  3 15  1  0
  3 16  1  0
  3 18  2  0
  4 16  2  0
  4 17  1  0
  5  6  1  0
  5 15  1  1
  5 19  1  0
  6  7  1  0
  6 32  1  6
  7  8  1  0
  7 31  1  6
  8  9  1  1
  8 19  1  0
  9 20  1  0
 10 11  1  0
 10 26  1  0
 11 12  1  0
 11 30  1  6
 12 13  1  0
 12 29  1  1
 13 14  1  0
 13 28  1  1
 14 27  1  0
 20 33  1  0
 21 33  2  0
 33 22  1  1
 23 33  1  0
 23 34  1  0
 24 34  2  0
 34 25  1  1
 26 34  1  0
M  CHG  2  22  -1  25  -1
M  END
$$$$
