8BTI_ligand
     RDKit          3D

 15 16  0  0  1  0  0  0  0  0999 V2000
   21.2647   67.1336   72.0539 C   0  0  0  0  0  0  0  0  0  0  0  0
   23.6095   66.8358   71.8029 C   0  0  0  0  0  0  0  0  0  0  0  0
   24.9519   67.5624   71.9720 C   0  0  0  0  0  0  0  0  0  0  0  0
   26.2005   65.5086   71.3393 C   0  0  0  0  0  0  0  0  0  0  0  0
   27.4668   64.9858   71.4238 C   0  0  0  0  0  0  0  0  0  0  0  0
   28.2786   65.9752   72.0523 C   0  0  0  0  0  0  0  0  0  0  0  0
   29.6199   66.0163   72.4691 C   0  0  0  0  0  0  0  0  0  0  0  0
   30.1107   67.1731   73.0639 C   0  0  0  0  0  0  0  0  0  0  0  0
   29.2956   68.2811   73.2467 C   0  0  0  0  0  0  0  0  0  0  0  0
   27.9546   68.2842   72.8689 C   0  0  0  0  0  0  0  0  0  0  0  0
   27.4439   67.1172   72.2797 C   0  0  0  0  0  0  0  0  0  0  0  0
   26.1490   66.7885   71.8670 N   0  0  0  0  0  0  0  0  0  0  0  0
   22.5369   67.7554   71.9591 O   0  0  0  0  0  0  0  0  0  0  0  0
   24.9948   68.7568   72.2616 O   0  0  0  0  0  0  0  0  0  0  0  0
   30.6408   64.6393   72.2998 Cl  0  0  0  0  0  0  0  0  0  0  0  0
  1 13  1  0
  2  3  1  0
  2 13  1  0
  3 12  1  0
  3 14  2  0
  4  5  2  0
  4 12  1  0
  5  6  1  0
  6  7  2  0
  6 11  1  0
  7  8  1  0
  7 15  1  0
  8  9  2  0
  9 10  1  0
 10 11  2  0
 11 12  1  0
M  END
$$$$
