7R3D_ligand
     RDKit          3D

 36 39  0  0  1  0  0  0  0  0999 V2000
   19.6969   27.9815  -49.0733 N   0  0  0  0  0  0  0  0  0  0  0  0
   20.0698   27.5597  -50.2885 C   0  0  0  0  0  0  0  0  0  0  0  0
   19.6838   26.4649  -50.9563 N   0  0  0  0  0  0  0  0  0  0  0  0
   18.8001   25.7312  -50.2355 C   0  0  0  0  0  0  0  0  0  0  0  0
   18.3212   26.0437  -48.9749 C   0  0  0  0  0  0  0  0  0  0  0  0
   18.7943   27.2375  -48.3844 C   0  0  0  0  0  0  0  0  0  0  0  0
   18.3953   27.6927  -47.1325 N   0  0  0  0  0  0  0  0  0  0  0  0
   17.4771   25.0992  -48.5337 N   0  0  0  0  0  0  0  0  0  0  0  0
   17.4589   24.2072  -49.4937 C   0  0  0  0  0  0  0  0  0  0  0  0
   18.2028   24.5501  -50.5647 N   0  0  0  0  0  0  0  0  0  0  0  0
   18.4740   23.7526  -51.8200 C   0  0  1  0  0  0  0  0  0  0  0  0
   18.9542   22.3302  -51.6066 C   0  0  2  0  0  0  0  0  0  0  0  0
   20.3189   22.3620  -51.2601 O   0  0  0  0  0  0  0  0  0  0  0  0
   18.5805   21.7154  -52.9517 C   0  0  2  0  0  0  0  0  0  0  0  0
   19.5786   21.8729  -53.9483 O   0  0  0  0  0  0  0  0  0  0  0  0
   17.3536   23.6947  -52.6444 O   0  0  0  0  0  0  0  0  0  0  0  0
   17.2818   22.4462  -53.3229 C   0  0  2  0  0  0  0  0  0  0  0  0
   15.9881   21.7455  -52.8870 C   0  0  0  0  0  0  0  0  0  0  0  0
   16.0238   21.3917  -51.5106 O   0  0  0  0  0  0  0  0  0  0  0  0
   15.2505   19.9250  -51.0488 P   0  0  2  0  0  0  0  0  0  0  0  0
   15.5288   19.6709  -49.5851 O   0  0  0  0  0  0  0  0  0  0  0  0
   15.4940   18.8886  -52.1244 O   0  0  0  0  0  0  0  0  0  0  0  0
   13.6392   20.4418  -51.2036 O   0  0  0  0  0  0  0  0  0  0  0  0
   12.2645   20.8640  -50.2965 P   0  0  1  0  0  0  0  0  0  0  0  0
   12.6875   21.5004  -48.9950 O   0  0  0  0  0  0  0  0  0  0  0  0
   11.2675   21.4972  -51.2382 O   0  0  0  0  0  0  0  0  0  0  0  0
   11.7878   19.2449  -49.9814 O   0  0  0  0  0  0  0  0  0  0  0  0
   11.2664   18.5030  -51.0681 C   0  0  0  0  0  0  0  0  0  0  0  0
   10.4795   16.8457  -49.5413 O   0  0  0  0  0  0  0  0  0  0  0  0
    8.3397   16.1882  -49.0386 O   0  0  0  0  0  0  0  0  0  0  0  0
    9.4974   15.8813  -49.7055 C   0  0  1  0  0  0  0  0  0  0  0  0
    8.6274   14.5959  -51.5607 O   0  0  0  0  0  0  0  0  0  0  0  0
    9.2158   15.8356  -51.2040 C   0  0  2  0  0  0  0  0  0  0  0  0
   11.3916   14.9493  -52.0151 O   0  0  0  0  0  0  0  0  0  0  0  0
   10.6165   16.1084  -51.7615 C   0  0  2  0  0  0  0  0  0  0  0  0
   11.2719   17.0123  -50.7098 C   0  0  1  0  0  0  0  0  0  0  0  0
  1  2  2  0
  1  6  1  0
  2  3  1  0
  3  4  2  0
  4  5  1  0
  4 10  1  0
  5  6  2  0
  5  8  1  0
  6  7  1  0
  8  9  2  0
  9 10  1  0
 11 10  1  1
 11 12  1  0
 11 16  1  0
 12 13  1  6
 12 14  1  0
 14 15  1  6
 14 17  1  0
 16 17  1  0
 17 18  1  1
 18 19  1  0
 19 20  1  0
 20 21  2  0
 20 22  1  6
 20 23  1  0
 23 24  1  0
 24 25  2  0
 24 26  1  6
 24 27  1  0
 27 28  1  0
 36 28  1  6
 29 31  1  0
 29 36  1  0
 31 30  1  1
 31 33  1  0
 33 32  1  6
 33 35  1  0
 35 34  1  1
 35 36  1  0
M  CHG  2  22  -1  26  -1
M  END
$$$$
