7Q2B_ligand
     RDKit          3D

 12 13  0  0  1  0  0  0  0  0999 V2000
  -32.9079  -11.3211   10.6377 C   0  0  0  0  0  0  0  0  0  0  0  0
  -31.5257  -11.2803   10.4779 C   0  0  0  0  0  0  0  0  0  0  0  0
  -33.4775  -11.2569   11.9065 C   0  0  0  0  0  0  0  0  0  0  0  0
  -30.7064  -11.1548   11.5948 C   0  0  0  0  0  0  0  0  0  0  0  0
  -32.6564  -11.1543   13.0245 C   0  0  0  0  0  0  0  0  0  0  0  0
  -27.5338  -13.3816   14.6755 C   0  0  0  0  0  0  0  0  0  0  0  0
  -28.3305  -13.6342   15.9440 C   0  0  0  0  0  0  0  0  0  0  0  0
  -30.3778  -10.9493   14.1016 C   0  0  0  0  0  0  0  0  0  0  0  0
  -29.7818  -12.2928   14.5301 C   0  0  0  0  0  0  0  0  0  0  0  0
  -31.2683  -11.0896   12.8722 C   0  0  0  0  0  0  0  0  0  0  0  0
  -28.6008  -12.8590   13.7066 N   0  0  0  0  0  0  0  0  0  0  0  0
  -29.2724  -12.4355   15.9724 N   0  0  0  0  0  0  0  0  0  0  0  0
  1  2  2  0
  1  3  1  0
  2  4  1  0
  3  5  2  0
  4 10  2  0
  5 10  1  0
  6  7  1  0
  6 11  1  0
  7 12  1  0
  8  9  1  0
  8 10  1  0
  9 11  1  0
  9 12  1  0
M  CHG  2  11   1  12   1
M  END
$$$$
