1KE5_ligand
     RDKit          3D

 23 25  0  0  1  0  0  0  0  0999 V2000
   -9.5021   52.6287   40.7127 N   0  0  0  0  0  0  0  0  0  0  0  0
   -9.9963   51.8309   39.7514 C   0  0  0  0  0  0  0  0  0  0  0  0
   -9.3481   50.5413   39.9262 C   0  0  0  0  0  0  0  0  0  0  0  0
   -7.6324   49.7882   41.7438 C   0  0  0  0  0  0  0  0  0  0  0  0
   -6.9210   50.2313   42.8600 C   0  0  0  0  0  0  0  0  0  0  0  0
   -7.0438   51.5550   43.2979 C   0  0  0  0  0  0  0  0  0  0  0  0
   -7.8846   52.4412   42.6217 C   0  0  0  0  0  0  0  0  0  0  0  0
   -8.6066   51.9748   41.5263 C   0  0  0  0  0  0  0  0  0  0  0  0
   -8.4854   50.6759   41.0870 C   0  0  0  0  0  0  0  0  0  0  0  0
  -10.8121   52.1660   38.8960 O   0  0  0  0  0  0  0  0  0  0  0  0
   -9.5447   49.4876   39.1065 C   0  0  0  0  0  0  0  0  0  0  0  0
  -10.3752   49.3854   38.0093 N   0  0  0  0  0  0  0  0  0  0  0  0
  -10.3830   48.3869   37.0272 C   0  0  0  0  0  0  0  0  0  0  0  0
   -9.2778   47.5617   36.7917 C   0  0  0  0  0  0  0  0  0  0  0  0
   -9.3345   46.5968   35.7924 C   0  0  0  0  0  0  0  0  0  0  0  0
  -10.4953   46.4473   35.0351 C   0  0  0  0  0  0  0  0  0  0  0  0
  -11.6017   47.2615   35.2745 C   0  0  0  0  0  0  0  0  0  0  0  0
  -11.5392   48.2355   36.2637 C   0  0  0  0  0  0  0  0  0  0  0  0
  -10.5396   45.2375   33.7202 S   0  0  0  0  0  0  0  0  0  0  0  0
   -9.3443   45.4779   32.9055 O   0  0  0  0  0  0  0  0  0  0  0  0
  -11.8764   45.2825   33.1170 O   0  0  0  0  0  0  0  0  0  0  0  0
  -10.3668   43.6666   34.4985 N   0  0  0  0  0  0  0  0  0  0  0  0
   -9.0780   43.2758   35.0985 C   0  0  0  0  0  0  0  0  0  0  0  0
  1  2  1  0
  1  8  1  0
  2  3  1  0
  2 10  2  0
  3  9  1  0
  3 11  2  0
  4  5  1  0
  4  9  2  0
  5  6  2  0
  6  7  1  0
  7  8  2  0
  8  9  1  0
 11 12  1  0
 12 13  1  0
 13 14  2  0
 13 18  1  0
 14 15  1  0
 15 16  2  0
 16 17  1  0
 16 19  1  0
 17 18  2  0
 19 20  2  0
 19 21  2  0
 19 22  1  0
 22 23  1  0
M  END
$$$$
