1YQY_ligand
     RDKit          3D

 23 24  0  0  1  0  0  0  0  0999 V2000
    9.2894   20.0062   27.7257 C   0  0  0  0  0  0  0  0  0  0  0  0
    8.3428   19.4986   28.6191 C   0  0  0  0  0  0  0  0  0  0  0  0
    8.0508   20.1869   29.7995 C   0  0  0  0  0  0  0  0  0  0  0  0
    8.7138   21.3836   30.0895 C   0  0  0  0  0  0  0  0  0  0  0  0
    9.6706   21.8812   29.2074 C   0  0  0  0  0  0  0  0  0  0  0  0
    9.9617   21.1949   28.0291 C   0  0  0  0  0  0  0  0  0  0  0  0
    8.4316   22.0688   31.2210 F   0  0  0  0  0  0  0  0  0  0  0  0
    6.9991   19.6466   30.7427 C   0  0  0  0  0  0  0  0  0  0  0  0
    9.5486   19.1968   26.1483 S   0  0  0  0  0  0  0  0  0  0  0  0
   10.5798   17.7903   26.4185 N   0  0  0  0  0  0  0  0  0  0  0  0
   12.0638   17.8992   26.4578 C   0  0  1  0  0  0  0  0  0  0  0  0
   12.4911   18.4976   27.8105 C   0  0  0  0  0  0  0  0  0  0  0  0
   13.4882   19.3896   27.7810 N   0  0  0  0  0  0  0  0  0  0  0  0
   14.0581   19.9192   28.8503 O   0  0  0  0  0  0  0  0  0  0  0  0
   11.9985   18.1156   28.8733 O   0  0  0  0  0  0  0  0  0  0  0  0
   10.3014   20.1356   25.3137 O   0  0  0  0  0  0  0  0  0  0  0  0
    8.2352   18.7013   25.7161 O   0  0  0  0  0  0  0  0  0  0  0  0
   12.7597   16.5333   26.1611 C   0  0  0  0  0  0  0  0  0  0  0  0
   12.3673   15.9451   24.7864 C   0  0  0  0  0  0  0  0  0  0  0  0
   13.0973   14.6103   24.5199 C   0  0  0  0  0  0  0  0  0  0  0  0
   14.5093   14.7856   24.6157 O   0  0  0  0  0  0  0  0  0  0  0  0
   14.9500   15.2364   25.8933 C   0  0  0  0  0  0  0  0  0  0  0  0
   14.3078   16.5997   26.1998 C   0  0  0  0  0  0  0  0  0  0  0  0
  1  2  2  0
  1  6  1  0
  1  9  1  0
  2  3  1  0
  3  4  2  0
  3  8  1  0
  4  5  1  0
  4  7  1  0
  5  6  2  0
  9 10  1  0
  9 16  2  0
  9 17  2  0
 11 10  1  1
 11 12  1  0
 11 18  1  0
 12 13  1  0
 12 15  2  0
 13 14  1  0
 18 19  1  0
 18 23  1  0
 19 20  1  0
 20 21  1  0
 21 22  1  0
 22 23  1  0
M  CHG  1  14  -1
M  END
$$$$
