7V43_ligand
     RDKit          3D

  8  8  0  0  1  0  0  0  0  0999 V2000
  -40.1684   24.1712   -7.3623 C   0  0  0  0  0  0  0  0  0  0  0  0
  -40.8901   24.5404   -8.6479 C   0  0  0  0  0  0  0  0  0  0  0  0
  -42.2123   24.1417   -8.8451 C   0  0  0  0  0  0  0  0  0  0  0  0
  -42.8805   24.4845  -10.0169 C   0  0  0  0  0  0  0  0  0  0  0  0
  -42.2189   25.2221  -10.9970 C   0  0  0  0  0  0  0  0  0  0  0  0
  -43.0455   25.6523  -12.4506 Cl  0  0  0  0  0  0  0  0  0  0  0  0
  -40.8944   25.6150  -10.8103 C   0  0  0  0  0  0  0  0  0  0  0  0
  -40.2274   25.2659   -9.6387 C   0  0  0  0  0  0  0  0  0  0  0  0
  1  2  1  0
  2  3  2  0
  2  8  1  0
  3  4  1  0
  4  5  2  0
  5  6  1  0
  5  7  1  0
  7  8  2  0
M  END
$$$$
