7Q19_ligand
     RDKit          3D

 20 22  0  0  1  0  0  0  0  0999 V2000
   -3.1940   44.9937   21.9865 C   0  0  0  0  0  0  0  0  0  0  0  0
   -3.4842   45.3910   20.5307 N   0  0  0  0  0  0  0  0  0  0  0  0
   -4.2838   46.6970   20.4040 C   0  0  0  0  0  0  0  0  0  0  0  0
   -4.6445   46.9507   18.9333 C   0  0  0  0  0  0  0  0  0  0  0  0
   -5.5788   48.1735   18.8073 C   0  0  0  0  0  0  0  0  0  0  0  0
   -5.9355   48.5712   17.4285 N   0  0  0  0  0  0  0  0  0  0  0  0
   -7.1930   49.1973   17.2218 C   0  0  0  0  0  0  0  0  0  0  0  0
   -7.8405   49.8382   18.3011 C   0  0  0  0  0  0  0  0  0  0  0  0
   -9.0367   50.5322   18.1538 C   0  0  0  0  0  0  0  0  0  0  0  0
   -9.6173   50.6373   16.9025 C   0  0  0  0  0  0  0  0  0  0  0  0
   -9.0116   50.0203   15.8154 C   0  0  0  0  0  0  0  0  0  0  0  0
   -7.8338   49.2737   15.9500 C   0  0  0  0  0  0  0  0  0  0  0  0
   -7.3408   48.5794   14.6751 C   0  0  0  0  0  0  0  0  0  0  0  0
   -6.2082   47.5522   14.7690 C   0  0  0  0  0  0  0  0  0  0  0  0
   -4.9131   48.1808   15.2400 C   0  0  0  0  0  0  0  0  0  0  0  0
   -4.8526   48.7204   16.5381 C   0  0  0  0  0  0  0  0  0  0  0  0
   -3.8117   48.2956   14.3841 C   0  0  0  0  0  0  0  0  0  0  0  0
   -2.6592   48.9647   14.7861 C   0  0  0  0  0  0  0  0  0  0  0  0
   -2.5965   49.5215   16.0577 C   0  0  0  0  0  0  0  0  0  0  0  0
   -3.6805   49.3943   16.9215 C   0  0  0  0  0  0  0  0  0  0  0  0
  1  2  1  0
  2  3  1  0
  3  4  1  0
  4  5  1  0
  5  6  1  0
  6  7  1  0
  6 16  1  0
  7  8  2  0
  7 12  1  0
  8  9  1  0
  9 10  2  0
 10 11  1  0
 11 12  2  0
 12 13  1  0
 13 14  1  0
 14 15  1  0
 15 16  2  0
 15 17  1  0
 16 20  1  0
 17 18  2  0
 18 19  1  0
 19 20  2  0
M  CHG  1   2   1
M  END
$$$$
