7FRX_ligand
     RDKit          3D

 30 32  0  0  1  0  0  0  0  0999 V2000
   79.3749  -22.8814   78.0396 C   0  0  0  0  0  0  0  0  0  0  0  0
   71.9691  -28.7607   80.1364 O   0  0  0  0  0  0  0  0  0  0  0  0
   79.0954  -21.8529   77.1401 C   0  0  0  0  0  0  0  0  0  0  0  0
   75.6322  -26.4288   80.4543 C   0  0  0  0  0  0  0  0  0  0  0  0
   74.4683  -27.1918   80.4469 C   0  0  0  0  0  0  0  0  0  0  0  0
   72.5678  -30.0095   82.7622 C   0  0  0  0  0  0  0  0  0  0  0  0
   72.6935  -30.7205   83.9561 C   0  0  0  0  0  0  0  0  0  0  0  0
   73.1694  -32.0039   83.9210 O   0  0  0  0  0  0  0  0  0  0  0  0
   71.6443  -28.1331   83.9779 C   0  0  0  0  0  0  0  0  0  0  0  0
   72.3159  -30.1276   85.1675 C   0  0  0  0  0  0  0  0  0  0  0  0
   71.7931  -28.8329   85.1755 C   0  0  0  0  0  0  0  0  0  0  0  0
   73.3730  -26.7987   81.2140 C   0  0  0  0  0  0  0  0  0  0  0  0
   72.0350  -28.7180   82.7704 C   0  0  0  0  0  0  0  0  0  0  0  0
   73.4393  -25.6416   81.9891 C   0  0  0  0  0  0  0  0  0  0  0  0
   74.6007  -24.8763   81.9935 C   0  0  0  0  0  0  0  0  0  0  0  0
   72.4481  -30.8120   86.3472 O   0  0  0  0  0  0  0  0  0  0  0  0
   75.7063  -25.2664   81.2341 C   0  0  0  0  0  0  0  0  0  0  0  0
   78.6391  -21.4817   79.8693 C   0  0  0  0  0  0  0  0  0  0  0  0
   79.8257  -23.3601   81.8611 O   0  0  0  0  0  0  0  0  0  0  0  0
   78.3324  -20.4615   78.9677 C   0  0  0  0  0  0  0  0  0  0  0  0
   79.1643  -22.6923   79.4067 C   0  0  0  0  0  0  0  0  0  0  0  0
   76.9494  -24.3793   81.2817 C   0  0  0  0  0  0  0  0  0  0  0  0
   80.6303  -24.8048   79.9177 O   0  0  0  0  0  0  0  0  0  0  0  0
   79.5922  -23.9916   80.5573 S   0  0  0  0  0  0  0  0  0  0  0  0
   79.3726  -22.0392   75.8132 O   0  0  0  0  0  0  0  0  0  0  0  0
   78.5660  -20.6417   77.6030 C   0  0  0  0  0  0  0  0  0  0  0  0
   78.2827  -19.6267   76.7265 O   0  0  0  0  0  0  0  0  0  0  0  0
   78.1510  -24.9888   80.6770 N   0  0  0  0  0  0  0  0  0  0  0  0
   71.8910  -27.8011   81.2437 S   0  0  0  0  0  0  0  0  0  0  0  0
   70.7427  -26.8932   81.3739 O   0  0  0  0  0  0  0  0  0  0  0  0
  1  3  2  0
  1 21  1  0
  2 29  2  0
  3 25  1  0
  3 26  1  0
  4  5  2  0
  4 17  1  0
  5 12  1  0
  6  7  2  0
  6 13  1  0
  7  8  1  0
  7 10  1  0
  9 11  1  0
  9 13  2  0
 10 11  2  0
 10 16  1  0
 12 14  2  0
 12 29  1  0
 13 29  1  0
 14 15  1  0
 15 17  2  0
 17 22  1  0
 18 20  1  0
 18 21  2  0
 19 24  2  0
 20 26  2  0
 21 24  1  0
 22 28  1  0
 23 24  2  0
 24 28  1  0
 26 27  1  0
 29 30  2  0
M  END
$$$$
