1L2S_ligand
     RDKit          3D

 19 20  0  0  1  0  0  0  0  0999 V2000
   51.0358   -3.5741   23.4528 N   0  0  0  0  0  0  0  0  0  0  0  0
   51.2353   -3.9974   22.1370 C   0  0  0  0  0  0  0  0  0  0  0  0
   50.3358   -3.5839   21.1556 C   0  0  0  0  0  0  0  0  0  0  0  0
   52.3324   -4.7917   21.7972 C   0  0  0  0  0  0  0  0  0  0  0  0
   50.5668   -3.9167   19.8244 C   0  0  0  0  0  0  0  0  0  0  0  0
   52.5610   -5.1279   20.4664 C   0  0  0  0  0  0  0  0  0  0  0  0
   51.6845   -4.6747   19.4826 C   0  0  0  0  0  0  0  0  0  0  0  0
   51.9975   -5.0308   17.8241 Cl  0  0  0  0  0  0  0  0  0  0  0  0
   52.2509   -2.5337   24.2154 S   0  0  0  0  0  0  0  0  0  0  0  0
   52.2989   -1.0744   23.1117 C   0  0  0  0  0  0  0  0  0  0  0  0
   51.7142   -2.1001   25.5103 O   0  0  0  0  0  0  0  0  0  0  0  0
   53.5505   -3.2062   24.1177 O   0  0  0  0  0  0  0  0  0  0  0  0
   51.2793   -0.1041   22.9261 C   0  0  0  0  0  0  0  0  0  0  0  0
   53.4220   -0.8279   22.3079 C   0  0  0  0  0  0  0  0  0  0  0  0
   51.8524    1.1523   21.8314 S   0  0  0  0  0  0  0  0  0  0  0  0
   49.8957    0.0047   23.4650 C   0  0  0  0  0  0  0  0  0  0  0  0
   53.3408    0.3400   21.5758 C   0  0  0  0  0  0  0  0  0  0  0  0
   49.4009   -1.0099   24.0016 O   0  0  0  0  0  0  0  0  0  0  0  0
   49.2696    1.0835   23.3440 O   0  0  0  0  0  0  0  0  0  0  0  0
  1  2  1  0
  1  9  1  0
  2  3  2  0
  2  4  1  0
  3  5  1  0
  4  6  2  0
  5  7  2  0
  6  7  1  0
  7  8  1  0
  9 10  1  0
  9 11  2  0
  9 12  2  0
 10 13  2  0
 10 14  1  0
 13 15  1  0
 13 16  1  0
 14 17  2  0
 15 17  1  0
 16 18  1  0
 16 19  2  0
M  CHG  1  18  -1
M  END
$$$$
