7NLV_ligand
     RDKit          3D

 21 23  0  0  1  0  0  0  0  0999 V2000
   11.5293   -3.4755   -0.5992 O   0  0  0  0  0  0  0  0  0  0  0  0
    2.9562    0.3327   -1.8250 O   0  0  0  0  0  0  0  0  0  0  0  0
   11.1362   -4.5873   -0.2422 C   0  0  0  0  0  0  0  0  0  0  0  0
    9.8749   -5.2077   -0.8629 C   0  0  0  0  0  0  0  0  0  0  0  0
    8.8427   -4.1821   -1.3910 C   0  0  0  0  0  0  0  0  0  0  0  0
    8.2309   -3.3322   -0.2648 C   0  0  0  0  0  0  0  0  0  0  0  0
    7.2170   -2.2762   -0.7278 C   0  0  0  0  0  0  0  0  0  0  0  0
    6.5864   -1.5292    0.4682 C   0  0  2  0  0  0  0  0  0  0  0  0
    5.3490   -2.5554    1.2876 S   0  0  0  0  0  0  0  0  0  0  0  0
    4.7460   -1.1293    2.1883 C   0  0  0  0  0  0  0  0  0  0  0  0
    4.7672    0.0345    1.1871 C   0  0  2  0  0  0  0  0  0  0  0  0
    3.5804    0.1718    0.3769 N   0  0  0  0  0  0  0  0  0  0  0  0
    3.7523    0.0372   -0.9431 C   0  0  0  0  0  0  0  0  0  0  0  0
    5.0617   -0.2073   -1.0727 N   0  0  0  0  0  0  0  0  0  0  0  0
    5.8534   -0.2066    0.1428 C   0  0  2  0  0  0  0  0  0  0  0  0
   11.7774   -5.3184    0.6837 N   0  0  0  0  0  0  0  0  0  0  0  0
   13.0250   -4.9021    1.3243 C   0  0  1  0  0  0  0  0  0  0  0  0
   12.8224   -3.8004    2.3702 C   0  0  0  0  0  0  0  0  0  0  0  0
   14.0471   -3.8768    3.2856 C   0  0  0  0  0  0  0  0  0  0  0  0
   14.5699   -5.3164    3.1364 N   0  0  0  0  0  0  0  0  0  0  0  0
   13.6314   -6.0304    2.1527 C   0  0  0  0  0  0  0  0  0  0  0  0
  1  3  2  0
  2 13  2  0
  3  4  1  0
  3 16  1  0
  4  5  1  0
  5  6  1  0
  6  7  1  0
  8  7  1  6
  8  9  1  0
  8 15  1  0
  9 10  1  0
 11 10  1  1
 11 12  1  0
 11 15  1  0
 12 13  1  0
 13 14  1  0
 15 14  1  6
 17 16  1  1
 17 18  1  0
 17 21  1  0
 18 19  1  0
 19 20  1  0
 20 21  1  0
M  CHG  1  20   1
M  END
$$$$
