7LB3_ligand
     RDKit          3D

 29 33  0  0  1  0  0  0  0  0999 V2000
   17.5382   20.5919   65.7110 C   0  0  2  0  0  0  0  0  0  0  0  0
   15.6504   19.2293   64.0530 C   0  0  0  0  0  0  0  0  0  0  0  0
   17.0628   20.5403   67.1766 C   0  0  0  0  0  0  0  0  0  0  0  0
   21.3456   18.9970   66.2317 C   0  0  0  0  0  0  0  0  0  0  0  0
   24.4289   20.3506   68.0366 C   0  0  0  0  0  0  0  0  0  0  0  0
   24.4484   21.7055   67.7188 C   0  0  0  0  0  0  0  0  0  0  0  0
   23.4354   22.1650   66.8767 C   0  0  0  0  0  0  0  0  0  0  0  0
   21.6312   22.1900   65.5533 C   0  0  0  0  0  0  0  0  0  0  0  0
   23.8303   15.1310   66.9241 C   0  0  0  0  0  0  0  0  0  0  0  0
   20.9732   15.3302   65.9502 C   0  0  0  0  0  0  0  0  0  0  0  0
   20.0234   14.2475   65.4531 C   0  0  0  0  0  0  0  0  0  0  0  0
   21.2926   14.5416   64.6965 C   0  0  0  0  0  0  0  0  0  0  0  0
   20.6309   16.8194   65.8723 C   0  0  0  0  0  0  0  0  0  0  0  0
   19.3570   17.2857   65.5237 C   0  0  0  0  0  0  0  0  0  0  0  0
   19.1310   18.6718   65.5529 C   0  0  0  0  0  0  0  0  0  0  0  0
   16.4940   21.2794   64.8053 C   0  0  0  0  0  0  0  0  0  0  0  0
   16.7067   18.4613   64.8776 C   0  0  0  0  0  0  0  0  0  0  0  0
   22.4072   19.9391   66.7130 C   0  0  0  0  0  0  0  0  0  0  0  0
   23.4401   19.4960   67.5554 C   0  0  0  0  0  0  0  0  0  0  0  0
   22.4212   21.3126   66.3645 C   0  0  0  0  0  0  0  0  0  0  0  0
   21.9734   13.3557   67.5860 N   0  0  0  0  0  0  0  0  0  0  0  0
   17.9119   19.2567   65.1921 N   0  0  0  0  0  0  0  0  0  0  0  0
   20.1396   19.5222   65.8984 N   0  0  0  0  0  0  0  0  0  0  0  0
   22.0813   23.4161   65.5727 N   0  0  0  0  0  0  0  0  0  0  0  0
   23.1653   23.4179   66.3646 N   0  0  0  0  0  0  0  0  0  0  0  0
   21.6348   17.6705   66.2106 N   0  0  0  0  0  0  0  0  0  0  0  0
   15.3366   20.4683   64.6694 O   0  0  0  0  0  0  0  0  0  0  0  0
   21.7508   15.7860   68.5925 O   0  0  0  0  0  0  0  0  0  0  0  0
   22.0466   14.8817   67.4775 S   0  0  1  0  0  0  0  0  0  0  0  0
  1  3  1  1
  1 16  1  0
  1 22  1  0
  2 17  1  0
  2 27  1  0
  4 18  1  0
  4 23  1  0
  4 26  2  0
  5  6  2  0
  5 19  1  0
  6  7  1  0
  7 20  2  0
  7 25  1  0
  8 20  1  0
  8 24  2  0
 29  9  1  6
 10 11  1  0
 10 12  1  0
 10 13  1  0
 10 29  1  0
 11 12  1  0
 13 14  2  0
 13 26  1  0
 14 15  1  0
 15 22  1  0
 15 23  2  0
 16 27  1  0
 17 22  1  0
 18 19  2  0
 18 20  1  0
 21 29  2  0
 24 25  1  0
 28 29  2  0
M  END
$$$$
