6YYO_ligand
     RDKit          3D

 19 21  0  0  1  0  0  0  0  0999 V2000
   14.7681   17.3738   22.1809 C   0  0  0  0  0  0  0  0  0  0  0  0
   12.0260   21.4710   23.0678 C   0  0  0  0  0  0  0  0  0  0  0  0
   11.7459   19.5922   24.5304 C   0  0  0  0  0  0  0  0  0  0  0  0
   13.3276   20.8791   22.5115 C   0  0  0  0  0  0  0  0  0  0  0  0
   13.0233   18.9239   23.9811 C   0  0  0  0  0  0  0  0  0  0  0  0
   15.8103   16.7537   21.4855 C   0  0  0  0  0  0  0  0  0  0  0  0
   14.4357   18.7161   21.9248 C   0  0  0  0  0  0  0  0  0  0  0  0
   16.8402   19.2903   19.2919 C   0  0  0  0  0  0  0  0  0  0  0  0
   11.3758   23.4354   25.3286 O   0  0  0  0  0  0  0  0  0  0  0  0
   10.9758   22.0437   25.5523 S   0  0  0  0  0  0  0  0  0  0  0  0
   11.0706   21.4370   26.8792 O   0  0  0  0  0  0  0  0  0  0  0  0
    9.2120   21.8629   24.9376 C   0  0  0  0  0  0  0  0  0  0  0  0
   11.9215   21.0477   24.4629 N   0  0  0  0  0  0  0  0  0  0  0  0
   13.4409   19.3993   22.6358 N   0  0  0  0  0  0  0  0  0  0  0  0
   15.0484   19.4223   20.9296 N   0  0  0  0  0  0  0  0  0  0  0  0
   16.4929   17.5050   20.5203 C   0  0  0  0  0  0  0  0  0  0  0  0
   17.5544   17.2653   19.7214 N   0  0  0  0  0  0  0  0  0  0  0  0
   17.7504   18.4043   18.9586 N   0  0  0  0  0  0  0  0  0  0  0  0
   16.0412   18.8023   20.2942 N   0  0  0  0  0  0  0  0  0  0  0  0
  1  6  2  0
  1  7  1  0
  2  4  1  0
  2 13  1  0
  3  5  1  0
  3 13  1  0
  4 14  1  0
  5 14  1  0
  6 16  1  0
  7 14  1  0
  7 15  2  0
  8 18  2  0
  8 19  1  0
  9 10  2  0
 10 11  2  0
 10 12  1  0
 10 13  1  0
 15 19  1  0
 16 17  2  0
 16 19  1  0
 17 18  1  0
M  END
$$$$
