5SAK_ligand
     RDKit          3D

 18 20  0  0  1  0  0  0  0  0999 V2000
   29.1717    4.0373   59.4763 N   0  0  0  0  0  0  0  0  0  0  0  0
   26.0550    4.7321   58.4047 C   0  0  0  0  0  0  0  0  0  0  0  0
   24.5409    7.3385   56.1626 C   0  0  0  0  0  0  0  0  0  0  0  0
   25.0374    5.3897   57.6605 N   0  0  0  0  0  0  0  0  0  0  0  0
   25.0413    8.2750   55.2584 C   0  0  0  0  0  0  0  0  0  0  0  0
   26.9373    3.1833   59.7680 C   0  0  0  0  0  0  0  0  0  0  0  0
   24.5475    2.9189   59.5456 C   0  0  0  0  0  0  0  0  0  0  0  0
   25.7311    3.5911   59.2281 C   0  0  0  0  0  0  0  0  0  0  0  0
   25.4400    6.4249   56.7277 N   0  0  0  0  0  0  0  0  0  0  0  0
   24.5862    1.8341   60.4227 C   0  0  0  0  0  0  0  0  0  0  0  0
   25.8019    1.4199   60.9691 C   0  0  0  0  0  0  0  0  0  0  0  0
   26.9820    2.0906   60.6384 C   0  0  0  0  0  0  0  0  0  0  0  0
   27.2962    5.0067   58.4216 N   0  0  0  0  0  0  0  0  0  0  0  0
   27.9353    4.0910   59.2305 C   0  0  0  0  0  0  0  0  0  0  0  0
   24.2059    9.2447   54.7117 C   0  0  0  0  0  0  0  0  0  0  0  0
   22.8547    9.2589   55.0467 C   0  0  0  0  0  0  0  0  0  0  0  0
   22.3346    8.3111   55.9245 C   0  0  0  0  0  0  0  0  0  0  0  0
   23.1781    7.3536   56.4816 C   0  0  0  0  0  0  0  0  0  0  0  0
  1 14  2  0
  2  4  1  0
  2  8  1  0
  2 13  2  0
  3  5  2  0
  3  9  1  0
  3 18  1  0
  4  9  1  0
  5 15  1  0
  6  8  1  0
  6 12  2  0
  6 14  1  0
  7  8  2  0
  7 10  1  0
 10 11  2  0
 11 12  1  0
 13 14  1  0
 15 16  2  0
 16 17  1  0
 17 18  2  0
M  END
$$$$
