7BTT_ligand
     RDKit          3D

 40 44  0  0  1  0  0  0  0  0999 V2000
    3.9354   17.4090    7.9632 N   0  0  0  0  0  0  0  0  0  0  0  0
    2.8335   17.4904    8.7489 C   0  0  0  0  0  0  0  0  0  0  0  0
    1.8842   19.5393    7.5340 C   0  0  0  0  0  0  0  0  0  0  0  0
    3.1158   21.2034    6.2592 C   0  0  0  0  0  0  0  0  0  0  0  0
    0.6762   20.0260    6.9945 C   0  0  0  0  0  0  0  0  0  0  0  0
   -1.7498   19.9062    6.8866 C   0  0  0  0  0  0  0  0  0  0  0  0
    3.7594   22.6450    4.5273 C   0  0  0  0  0  0  0  0  0  0  0  0
    5.4590   22.0325    6.2229 C   0  0  0  0  0  0  0  0  0  0  0  0
   10.9178   17.4099    9.2103 C   0  0  0  0  0  0  0  0  0  0  0  0
    9.7492   17.8640    8.3277 C   0  0  0  0  0  0  0  0  0  0  0  0
    7.9881   17.1066    6.1298 C   0  0  0  0  0  0  0  0  0  0  0  0
    8.4633   17.6640    4.9391 C   0  0  0  0  0  0  0  0  0  0  0  0
    7.5931   18.2812    4.0468 C   0  0  0  0  0  0  0  0  0  0  0  0
    6.2396   18.3647    4.3453 C   0  0  0  0  0  0  0  0  0  0  0  0
    5.7499   17.8125    5.5240 C   0  0  0  0  0  0  0  0  0  0  0  0
    6.6112   17.1705    6.4254 C   0  0  0  0  0  0  0  0  0  0  0  0
    4.9376   16.5702    8.3100 C   0  0  0  0  0  0  0  0  0  0  0  0
    3.0941   20.1553    7.1789 C   0  0  0  0  0  0  0  0  0  0  0  0
    1.9419   21.5946    5.6328 C   0  0  0  0  0  0  0  0  0  0  0  0
    0.7224   21.0581    6.0377 C   0  0  0  0  0  0  0  0  0  0  0  0
    2.2345   22.6588    4.6181 C   0  0  0  0  0  0  0  0  0  0  0  0
    6.5058   22.7985    5.3737 C   0  0  0  0  0  0  0  0  0  0  0  0
    8.3870   21.0859    5.5021 C   0  0  0  0  0  0  0  0  0  0  0  0
    8.8824   23.5478    5.1757 C   0  0  0  0  0  0  0  0  0  0  0  0
    3.5746   15.8886   10.2014 C   0  0  0  0  0  0  0  0  0  0  0  0
    4.7751   15.7806    9.4466 C   0  0  0  0  0  0  0  0  0  0  0  0
    4.9380   14.3913   11.2047 C   0  0  0  0  0  0  0  0  0  0  0  0
    3.6985   14.9912   11.3068 C   0  0  0  0  0  0  0  0  0  0  0  0
    8.5650   18.3957    9.1545 C   0  0  0  0  0  0  0  0  0  0  0  0
    6.1455   16.5746    7.6067 N   0  0  0  0  0  0  0  0  0  0  0  0
    1.8607   18.4551    8.4390 N   0  0  0  0  0  0  0  0  0  0  0  0
    4.2072   21.8971    5.7087 N   0  0  0  0  0  0  0  0  0  0  0  0
    7.9198   22.5224    5.8102 N   0  0  0  0  0  0  0  0  0  0  0  0
    2.5924   16.7326    9.8518 N   0  0  0  0  0  0  0  0  0  0  0  0
    5.5806   14.8601   10.0881 N   0  0  0  0  0  0  0  0  0  0  0  0
   -0.5091   19.4468    7.4180 O   0  0  0  0  0  0  0  0  0  0  0  0
    5.7734   21.5862    7.3303 O   0  0  0  0  0  0  0  0  0  0  0  0
    8.5545   15.3892    8.1062 O   0  0  0  0  0  0  0  0  0  0  0  0
   10.3641   15.9818    6.4447 O   0  0  0  0  0  0  0  0  0  0  0  0
    9.2110   16.3876    7.2549 S   0  0  0  0  0  0  0  0  0  0  0  0
  1  2  2  0
  1 17  1  0
  2 31  1  0
  2 34  1  0
  3  5  2  0
  3 18  1  0
  3 31  1  0
  4 18  2  0
  4 19  1  0
  4 32  1  0
  5 20  1  0
  5 36  1  0
  6 36  1  0
  7 21  1  0
  7 32  1  0
  8 22  1  0
  8 32  1  0
  8 37  2  0
  9 10  1  0
 10 29  1  0
 10 40  1  0
 11 12  2  0
 11 16  1  0
 11 40  1  0
 12 13  1  0
 13 14  2  0
 14 15  1  0
 15 16  2  0
 16 30  1  0
 17 26  2  0
 17 30  1  0
 19 20  2  0
 19 21  1  0
 22 33  1  0
 23 33  1  0
 24 33  1  0
 25 26  1  0
 25 28  1  0
 25 34  2  0
 26 35  1  0
 27 28  2  0
 27 35  1  0
 38 40  2  0
 39 40  2  0
M  CHG  1  33   1
M  END
$$$$
