7UEY_ligand
     RDKit          3D

 27 29  0  0  1  0  0  0  0  0999 V2000
  -23.8815   24.5977  -24.2753 C   0  0  0  0  0  0  0  0  0  0  0  0
  -24.0995   24.7464  -25.7941 C   0  0  0  0  0  0  0  0  0  0  0  0
  -25.5104   26.4348  -23.8881 C   0  0  0  0  0  0  0  0  0  0  0  0
  -25.7173   26.5440  -25.4102 C   0  0  0  0  0  0  0  0  0  0  0  0
  -27.4456   21.0258  -19.1249 C   0  0  0  0  0  0  0  0  0  0  0  0
  -26.1685   21.5482  -18.8783 C   0  0  0  0  0  0  0  0  0  0  0  0
  -25.4514   22.1367  -19.9143 C   0  0  0  0  0  0  0  0  0  0  0  0
  -26.0118   22.2197  -21.1904 C   0  0  0  0  0  0  0  0  0  0  0  0
  -25.2429   22.9012  -22.3178 C   0  0  0  0  0  0  0  0  0  0  0  0
  -25.7310   24.3348  -22.6306 C   0  0  0  0  0  0  0  0  0  0  0  0
  -24.3405   26.5745  -27.5138 C   0  0  0  0  0  0  0  0  0  0  0  0
  -23.7793   27.8037  -29.8860 C   0  0  0  0  0  0  0  0  0  0  0  0
  -23.3161   26.5046  -29.6932 C   0  0  0  0  0  0  0  0  0  0  0  0
  -23.5992   25.8781  -28.4820 C   0  0  0  0  0  0  0  0  0  0  0  0
  -27.7775   19.6072  -17.1404 C   0  0  0  0  0  0  0  0  0  0  0  0
  -28.8188   18.9631  -16.2066 C   0  0  0  0  0  0  0  0  0  0  0  0
  -27.2924   21.7146  -21.4290 C   0  0  0  0  0  0  0  0  0  0  0  0
  -28.0121   21.1270  -20.3950 C   0  0  0  0  0  0  0  0  0  0  0  0
  -25.0716   25.0720  -23.5607 N   0  0  0  0  0  0  0  0  0  0  0  0
  -24.5964   26.0604  -26.2395 N   0  0  0  0  0  0  0  0  0  0  0  0
  -24.7701   27.8460  -27.7694 N   0  0  0  0  0  0  0  0  0  0  0  0
  -24.4987   28.4529  -28.9358 N   0  0  0  0  0  0  0  0  0  0  0  0
  -28.2197   20.4029  -18.1378 N   0  0  0  0  0  0  0  0  0  0  0  0
  -26.5887   19.3415  -16.9647 O   0  0  0  0  0  0  0  0  0  0  0  0
  -30.1405   19.4017  -16.4897 O   0  0  0  0  0  0  0  0  0  0  0  0
  -26.7189   24.7746  -22.0381 O   0  0  0  0  0  0  0  0  0  0  0  0
  -23.4274   28.6179  -31.3647 Cl  0  0  0  0  0  0  0  0  0  0  0  0
  1  2  1  0
  1 19  1  0
  2 20  1  0
  3  4  1  0
  3 19  1  0
  4 20  1  0
  5  6  2  0
  5 18  1  0
  5 23  1  0
  6  7  1  0
  7  8  2  0
  8  9  1  0
  8 17  1  0
  9 10  1  0
 10 19  1  0
 10 26  2  0
 11 14  2  0
 11 20  1  0
 11 21  1  0
 12 13  2  0
 12 22  1  0
 12 27  1  0
 13 14  1  0
 15 16  1  0
 15 23  1  0
 15 24  2  0
 16 25  1  0
 17 18  2  0
 21 22  2  0
M  END
$$$$
