2BSM_ligand
     RDKit          3D

 27 29  0  0  1  0  0  0  0  0999 V2000
   35.1737    5.4471   21.5194 C   0  0  0  0  0  0  0  0  0  0  0  0
   35.5265    5.9699   22.7935 O   0  0  0  0  0  0  0  0  0  0  0  0
   34.5553    6.5698   23.5707 C   0  0  0  0  0  0  0  0  0  0  0  0
   33.2146    6.7320   23.1884 C   0  0  0  0  0  0  0  0  0  0  0  0
   32.3101    7.3361   24.0584 C   0  0  0  0  0  0  0  0  0  0  0  0
   34.9676    7.0322   24.8197 C   0  0  0  0  0  0  0  0  0  0  0  0
   34.0623    7.6304   25.6901 C   0  0  0  0  0  0  0  0  0  0  0  0
   32.7277    7.7765   25.3140 C   0  0  0  0  0  0  0  0  0  0  0  0
   31.7427    8.3766   26.2622 C   0  0  0  0  0  0  0  0  0  0  0  0
   31.4371    7.9493   27.5572 C   0  0  0  0  0  0  0  0  0  0  0  0
   31.9160    6.8195   28.3114 C   0  0  0  0  0  0  0  0  0  0  0  0
   32.3827    5.8278   27.7528 O   0  0  0  0  0  0  0  0  0  0  0  0
   31.8201    6.9604   29.6470 N   0  0  0  0  0  0  0  0  0  0  0  0
   32.2117    5.9714   30.6471 C   0  0  0  0  0  0  0  0  0  0  0  0
   33.7259    5.7213   30.7205 C   0  0  0  0  0  0  0  0  0  0  0  0
   30.4187    8.7793   27.9494 N   0  0  0  0  0  0  0  0  0  0  0  0
   30.1224    9.7315   27.0704 N   0  0  0  0  0  0  0  0  0  0  0  0
   30.9237    9.5116   26.0524 C   0  0  0  0  0  0  0  0  0  0  0  0
   30.9036   10.4111   24.8615 C   0  0  0  0  0  0  0  0  0  0  0  0
   32.1311   10.9075   24.4171 C   0  0  0  0  0  0  0  0  0  0  0  0
   32.2016   11.7282   23.2959 C   0  0  0  0  0  0  0  0  0  0  0  0
   33.7324   12.3663   22.8290 Cl  0  0  0  0  0  0  0  0  0  0  0  0
   31.0412   12.0271   22.5780 C   0  0  0  0  0  0  0  0  0  0  0  0
   31.1108   12.7448   21.4158 O   0  0  0  0  0  0  0  0  0  0  0  0
   29.8050   11.5741   23.0361 C   0  0  0  0  0  0  0  0  0  0  0  0
   29.7309   10.7795   24.1805 C   0  0  0  0  0  0  0  0  0  0  0  0
   28.5015   10.3600   24.6105 O   0  0  0  0  0  0  0  0  0  0  0  0
  1  2  1  0
  2  3  1  0
  3  4  2  0
  3  6  1  0
  4  5  1  0
  5  8  2  0
  6  7  2  0
  7  8  1  0
  8  9  1  0
  9 10  2  0
  9 18  1  0
 10 11  1  0
 10 16  1  0
 11 12  2  0
 11 13  1  0
 13 14  1  0
 14 15  1  0
 16 17  1  0
 17 18  2  0
 18 19  1  0
 19 20  2  0
 19 26  1  0
 20 21  1  0
 21 22  1  0
 21 23  2  0
 23 24  1  0
 23 25  1  0
 25 26  2  0
 26 27  1  0
M  END
$$$$
