8C7Y_ligand
     RDKit          3D

 34 37  0  0  1  0  0  0  0  0999 V2000
    1.1929  111.8398   18.8526 N   0  0  0  0  0  0  0  0  0  0  0  0
   -0.8809  113.2783   20.2862 C   0  0  0  0  0  0  0  0  0  0  0  0
   -1.1570  112.2908   19.3311 C   0  0  0  0  0  0  0  0  0  0  0  0
    3.9574  107.7225   13.4846 N   0  0  0  0  0  0  0  0  0  0  0  0
   -2.4735  111.8064   19.2356 C   0  0  0  0  0  0  0  0  0  0  0  0
    4.5224  112.1918   14.4488 O   0  0  0  0  0  0  0  0  0  0  0  0
   -4.9394  111.7263   19.9492 C   0  0  0  0  0  0  0  0  0  0  0  0
   -3.1740  113.2438   21.0352 C   0  0  0  0  0  0  0  0  0  0  0  0
   -1.8782  113.7365   21.1415 C   0  0  0  0  0  0  0  0  0  0  0  0
    4.7440  107.8202   11.2044 N   0  0  0  0  0  0  0  0  0  0  0  0
   -3.5002  112.2810   20.0702 C   0  0  0  0  0  0  0  0  0  0  0  0
   -5.2639  111.4302   18.5408 C   0  0  0  0  0  0  0  0  0  0  0  0
   -5.0528  110.4063   20.7411 C   0  0  0  0  0  0  0  0  0  0  0  0
    5.9712  109.8458   16.8080 F   0  0  0  0  0  0  0  0  0  0  0  0
    4.7884  110.3353   17.2534 C   0  0  0  0  0  0  0  0  0  0  0  0
    4.4733  110.1985   18.6024 C   0  0  0  0  0  0  0  0  0  0  0  0
    3.2637  110.6816   19.0933 C   0  0  0  0  0  0  0  0  0  0  0  0
    3.8898  110.9697   16.3818 C   0  0  0  0  0  0  0  0  0  0  0  0
    2.6793  111.4815   16.8831 C   0  0  0  0  0  0  0  0  0  0  0  0
    1.8433  112.1521   16.0539 F   0  0  0  0  0  0  0  0  0  0  0  0
    2.3520  111.3161   18.2449 C   0  0  0  0  0  0  0  0  0  0  0  0
   -0.0814  111.7663   18.4037 C   0  0  0  0  0  0  0  0  0  0  0  0
   -0.3994  111.2843   17.3168 O   0  0  0  0  0  0  0  0  0  0  0  0
   -5.5246  111.1907   17.4403 N   0  0  0  0  0  0  0  0  0  0  0  0
   -6.0212  112.7216   20.4433 C   0  0  0  0  0  0  0  0  0  0  0  0
    4.2277  111.1007   14.9342 C   0  0  0  0  0  0  0  0  0  0  0  0
    4.2186  109.8870   14.1142 C   0  0  0  0  0  0  0  0  0  0  0  0
    4.6216  109.7506   12.7331 C   0  0  0  0  0  0  0  0  0  0  0  0
    5.0942  110.6067   11.7196 C   0  0  0  0  0  0  0  0  0  0  0  0
    5.3503  110.0593   10.4601 C   0  0  0  0  0  0  0  0  0  0  0  0
    5.8586  111.0633    9.1547 Cl  0  0  0  0  0  0  0  0  0  0  0  0
    5.1761  108.6907   10.2571 C   0  0  0  0  0  0  0  0  0  0  0  0
    4.4643  108.3739   12.3866 C   0  0  0  0  0  0  0  0  0  0  0  0
    3.8037  108.6240   14.5057 C   0  0  0  0  0  0  0  0  0  0  0  0
  1 21  1  0
  1 22  1  0
  2  3  2  0
  2  9  1  0
  3  5  1  0
  3 22  1  0
  4 33  1  0
  4 34  1  0
  5 11  2  0
  6 26  2  0
  7 11  1  0
  7 12  1  0
  7 13  1  0
  7 25  1  0
  8  9  2  0
  8 11  1  0
 10 32  1  0
 10 33  2  0
 12 24  3  0
 14 15  1  0
 15 16  2  0
 15 18  1  0
 16 17  1  0
 17 21  2  0
 18 19  2  0
 18 26  1  0
 19 20  1  0
 19 21  1  0
 22 23  2  0
 26 27  1  0
 27 28  1  0
 27 34  2  0
 28 29  2  0
 28 33  1  0
 29 30  1  0
 30 31  1  0
 30 32  2  0
M  END
$$$$
