7NGW_ligand
     RDKit          3D

 17 18  0  0  1  0  0  0  0  0999 V2000
  -11.7959  -28.0165    4.1205 C   0  0  0  0  0  0  0  0  0  0  0  0
  -12.7266  -28.0790    1.7976 C   0  0  0  0  0  0  0  0  0  0  0  0
  -14.9493  -29.2420    1.7816 C   0  0  0  0  0  0  0  0  0  0  0  0
  -15.1573  -29.3760    0.3987 C   0  0  0  0  0  0  0  0  0  0  0  0
  -15.8993  -29.7522    2.6707 C   0  0  0  0  0  0  0  0  0  0  0  0
  -17.0261  -30.4130    2.1890 C   0  0  0  0  0  0  0  0  0  0  0  0
  -17.2121  -30.5528    0.8182 C   0  0  0  0  0  0  0  0  0  0  0  0
  -16.2898  -30.0266   -0.0767 C   0  0  0  0  0  0  0  0  0  0  0  0
  -10.5049  -27.1051    2.0576 C   0  0  0  0  0  0  0  0  0  0  0  0
   -9.2135  -27.4630    2.8145 C   0  0  0  0  0  0  0  0  0  0  0  0
  -11.6835  -27.8097    2.6427 N   0  0  0  0  0  0  0  0  0  0  0  0
  -13.8097  -28.6606    2.3701 N   0  0  0  0  0  0  0  0  0  0  0  0
  -10.4152  -28.3055    4.7380 C   0  0  0  0  0  0  0  0  0  0  0  0
   -8.0482  -27.4306    5.0668 C   0  0  0  0  0  0  0  0  0  0  0  0
   -9.3784  -27.2598    4.3195 C   0  0  0  0  0  0  0  0  0  0  0  0
  -12.6663  -27.8435    0.5880 O   0  0  0  0  0  0  0  0  0  0  0  0
  -18.3013  -31.2250    0.3408 O   0  0  0  0  0  0  0  0  0  0  0  0
  1 11  1  0
  1 13  1  0
  2 11  1  0
  2 12  1  0
  2 16  2  0
  3  4  2  0
  3  5  1  0
  3 12  1  0
  4  8  1  0
  5  6  2  0
  6  7  1  0
  7  8  2  0
  7 17  1  0
  9 10  1  0
  9 11  1  0
 10 15  1  0
 13 15  1  0
 14 15  1  0
M  END
$$$$
