8EXL_ligand
     RDKit          3D

 34 38  0  0  1  0  0  0  0  0999 V2000
  -22.4231   18.1413   33.0750 C   0  0  0  0  0  0  0  0  0  0  0  0
  -21.2302   18.1242   34.0790 C   0  0  0  0  0  0  0  0  0  0  0  0
  -21.4538   17.0528   35.1795 C   0  0  0  0  0  0  0  0  0  0  0  0
  -21.1707   19.5262   34.7556 C   0  0  0  0  0  0  0  0  0  0  0  0
  -19.7032   16.7281   32.5691 C   0  0  0  0  0  0  0  0  0  0  0  0
  -17.6506   15.8931   31.2438 C   0  0  0  0  0  0  0  0  0  0  0  0
  -14.0833   15.9198   28.3098 C   0  0  0  0  0  0  0  0  0  0  0  0
  -13.5332   14.6391   27.7048 C   0  0  0  0  0  0  0  0  0  0  0  0
  -14.3627   12.4545   26.8276 C   0  0  0  0  0  0  0  0  0  0  0  0
  -16.2917   14.2519   29.3717 C   0  0  0  0  0  0  0  0  0  0  0  0
  -17.6227   13.9978   29.7430 C   0  0  0  0  0  0  0  0  0  0  0  0
  -18.1493    9.8254   27.2005 C   0  0  0  0  0  0  0  0  0  0  0  0
  -19.3742    9.4666   26.3335 C   0  0  0  0  0  0  0  0  0  0  0  0
  -18.1209    9.0711   28.5428 C   0  0  0  0  0  0  0  0  0  0  0  0
  -22.1909   18.5291   31.8176 N   0  0  0  0  0  0  0  0  0  0  0  0
  -23.5705   17.8977   33.4457 O   0  0  0  0  0  0  0  0  0  0  0  0
  -19.9406   17.7855   33.4164 N   0  0  0  0  0  0  0  0  0  0  0  0
  -18.3717   16.7839   32.1972 C   0  0  0  0  0  0  0  0  0  0  0  0
  -17.8890   17.8728   32.9426 C   0  0  0  0  0  0  0  0  0  0  0  0
  -18.8064   18.4588   33.6757 N   0  0  0  0  0  0  0  0  0  0  0  0
  -16.3266   16.1499   30.8960 C   0  0  0  0  0  0  0  0  0  0  0  0
  -15.6463   15.3546   29.9753 C   0  0  0  0  0  0  0  0  0  0  0  0
  -14.3674   15.7438   29.6796 O   0  0  0  0  0  0  0  0  0  0  0  0
  -14.4729   13.5328   27.6635 N   0  0  0  0  0  0  0  0  0  0  0  0
  -15.4499   11.6408   27.0601 C   0  0  0  0  0  0  0  0  0  0  0  0
  -16.2005   12.1757   28.0018 N   0  0  0  0  0  0  0  0  0  0  0  0
  -15.6558   13.3240   28.3602 C   0  0  0  0  0  0  0  0  0  0  0  0
  -18.2932   14.8012   30.6592 C   0  0  0  0  0  0  0  0  0  0  0  0
  -15.7472   10.3694   26.3940 C   0  0  0  0  0  0  0  0  0  0  0  0
  -14.8905    9.7706   25.6019 N   0  0  0  0  0  0  0  0  0  0  0  0
  -15.4994    8.6449   25.2781 C   0  0  0  0  0  0  0  0  0  0  0  0
  -14.8568    7.6369   24.3582 C   0  0  0  0  0  0  0  0  0  0  0  0
  -16.7037    8.4707   25.7719 N   0  0  0  0  0  0  0  0  0  0  0  0
  -16.8895    9.5998   26.4720 N   0  0  0  0  0  0  0  0  0  0  0  0
  1  2  1  0
  1 15  1  0
  1 16  2  0
  2  3  1  0
  2  4  1  0
  2 17  1  0
  5 17  1  0
  5 18  2  0
  6 18  1  0
  6 21  1  0
  6 28  2  0
  7  8  1  0
  7 23  1  0
  8 24  1  0
  9 24  1  0
  9 25  2  0
 10 11  2  0
 10 22  1  0
 10 27  1  0
 11 28  1  0
 12 13  1  0
 12 14  1  0
 12 34  1  0
 17 20  1  0
 18 19  1  0
 19 20  2  0
 21 22  2  0
 22 23  1  0
 24 27  1  0
 25 26  1  0
 25 29  1  0
 26 27  2  0
 29 30  2  0
 29 34  1  0
 30 31  1  0
 31 32  1  0
 31 33  2  0
 33 34  1  0
M  END
$$$$
