6XM9_ligand
     RDKit          3D

 11 11  0  0  1  0  0  0  0  0999 V2000
   23.2152   10.9738   34.1821 C   0  0  0  0  0  0  0  0  0  0  0  0
   22.6019   10.0787   35.0692 C   0  0  0  0  0  0  0  0  0  0  0  0
   21.5136    9.2881   34.6551 C   0  0  0  0  0  0  0  0  0  0  0  0
   21.0320    9.4477   33.3473 C   0  0  0  0  0  0  0  0  0  0  0  0
   21.6564   10.3201   32.4598 C   0  0  0  0  0  0  0  0  0  0  0  0
   24.8546   11.8457   35.7080 O   0  0  0  0  0  0  0  0  0  0  0  0
   22.7480   11.0722   32.8732 C   0  0  0  0  0  0  0  0  0  0  0  0
   24.3533   11.8304   34.5857 C   0  0  0  0  0  0  0  0  0  0  0  0
   21.2705    8.2281   36.8230 C   0  0  0  0  0  0  0  0  0  0  0  0
   20.8894    8.3494   35.4579 O   0  0  0  0  0  0  0  0  0  0  0  0
   19.9287    8.7659   32.9095 O   0  0  0  0  0  0  0  0  0  0  0  0
  1  2  2  0
  1  7  1  0
  1  8  1  0
  2  3  1  0
  3  4  2  0
  3 10  1  0
  4  5  1  0
  4 11  1  0
  5  7  2  0
  6  8  2  0
  9 10  1  0
M  END
$$$$
