7LOU_ligand
     RDKit          3D

 10 10  0  0  1  0  0  0  0  0999 V2000
  -17.2329    1.4382   88.3876 O   0  0  0  0  0  0  0  0  0  0  0  0
  -17.1047    0.0259   88.3456 C   0  0  1  0  0  0  0  0  0  0  0  0
  -18.0434   -0.6140   87.2949 C   0  0  2  0  0  0  0  0  0  0  0  0
  -19.3761   -0.2401   87.5408 O   0  0  0  0  0  0  0  0  0  0  0  0
  -17.9483   -2.1574   87.3040 C   0  0  0  0  0  0  0  0  0  0  0  0
  -16.4856   -2.5808   87.0770 N   0  0  0  0  0  0  0  0  0  0  0  0
  -15.5179   -1.9612   88.1034 C   0  0  0  0  0  0  0  0  0  0  0  0
  -15.6424   -0.4167   88.0871 C   0  0  2  0  0  0  0  0  0  0  0  0
  -14.6064    0.2591   89.0069 C   0  0  0  0  0  0  0  0  0  0  0  0
  -14.7885   -0.1198   90.3512 O   0  0  0  0  0  0  0  0  0  0  0  0
  2  1  1  6
  2  3  1  0
  2  8  1  0
  3  4  1  1
  3  5  1  0
  5  6  1  0
  6  7  1  0
  7  8  1  0
  8  9  1  1
  9 10  1  0
M  CHG  1   6   1
M  END
$$$$
