6Y7L_ligand
     RDKit          3D

 25 28  0  0  1  0  0  0  0  0999 V2000
  129.0833   -7.4471   31.5030 C   0  0  0  0  0  0  0  0  0  0  0  0
  125.5705   -5.6264   35.7056 C   0  0  0  0  0  0  0  0  0  0  0  0
  125.6645   -3.4593   36.7883 C   0  0  0  0  0  0  0  0  0  0  0  0
  131.1949   -2.0007   36.8755 C   0  0  0  0  0  0  0  0  0  0  0  0
  131.4919   -0.6438   36.9026 C   0  0  0  0  0  0  0  0  0  0  0  0
  127.7916    1.8498   36.0300 C   0  0  0  0  0  0  0  0  0  0  0  0
  127.9827    0.4049   36.1548 C   0  0  0  0  0  0  0  0  0  0  0  0
  127.0264   -0.5925   36.0127 C   0  0  0  0  0  0  0  0  0  0  0  0
  127.5696   -1.8562   36.1837 C   0  0  0  0  0  0  0  0  0  0  0  0
  126.8393   -3.1565   36.0715 C   0  0  0  0  0  0  0  0  0  0  0  0
  127.3766   -4.1180   35.2070 C   0  0  0  0  0  0  0  0  0  0  0  0
  126.7590   -5.3635   35.0137 C   0  0  0  0  0  0  0  0  0  0  0  0
  127.3353   -6.4095   34.0819 C   0  0  0  0  0  0  0  0  0  0  0  0
  129.3881   -7.2528   32.9719 C   0  0  0  0  0  0  0  0  0  0  0  0
  130.3628   -6.7646   31.9266 C   0  0  0  0  0  0  0  0  0  0  0  0
  125.0356   -4.6894   36.5857 C   0  0  0  0  0  0  0  0  0  0  0  0
  125.0659   -2.5250   37.8336 C   0  0  0  0  0  0  0  0  0  0  0  0
  128.9530   -1.6301   36.4379 C   0  0  0  0  0  0  0  0  0  0  0  0
  130.4551    0.2549   36.6811 C   0  0  0  0  0  0  0  0  0  0  0  0
  126.4435    2.3435   35.5106 C   0  0  0  0  0  0  0  0  0  0  0  0
  128.6308   -6.2713   33.7421 N   0  0  0  0  0  0  0  0  0  0  0  0
  129.9519   -2.4996   36.6562 N   0  0  0  0  0  0  0  0  0  0  0  0
  129.1864   -0.2259   36.4388 N   0  0  0  0  0  0  0  0  0  0  0  0
  128.6462    2.6797   36.3301 O   0  0  0  0  0  0  0  0  0  0  0  0
  126.6387   -7.3449   33.6804 O   0  0  0  0  0  0  0  0  0  0  0  0
  1 14  1  0
  1 15  1  0
  2 12  2  0
  2 16  1  0
  3 10  1  0
  3 16  2  0
  3 17  1  0
  4  5  1  0
  4 22  2  0
  5 19  2  0
  6  7  1  0
  6 20  1  0
  6 24  2  0
  7  8  2  0
  7 23  1  0
  8  9  1  0
  9 10  1  0
  9 18  2  0
 10 11  2  0
 11 12  1  0
 12 13  1  0
 13 21  1  0
 13 25  2  0
 14 15  1  0
 14 21  1  0
 18 22  1  0
 18 23  1  0
 19 23  1  0
M  END
$$$$
