7B94_ligand
     RDKit          3D

 31 33  0  0  1  0  0  0  0  0999 V2000
  -27.6173    1.5445   -5.1921 P   0  0  0  0  0  0  0  0  0  0  0  0
  -28.6577    1.7577   -4.0804 O   0  0  0  0  0  0  0  0  0  0  0  0
  -26.1839    1.9523   -4.8132 O   0  0  0  0  0  0  0  0  0  0  0  0
  -28.0601    2.0390   -6.5782 O   0  0  0  0  0  0  0  0  0  0  0  0
  -28.0091   -1.4666   -6.7159 P   0  0  2  0  0  0  0  0  0  0  0  0
  -27.2406   -2.7609   -6.6127 O   0  0  0  0  0  0  0  0  0  0  0  0
  -28.0922   -0.6575   -7.9906 O   0  0  0  0  0  0  0  0  0  0  0  0
  -27.5224   -0.3890   -5.4086 N   0  0  0  0  0  0  0  0  0  0  0  0
  -31.1360   -1.0292   -6.4638 P   0  0  2  0  0  0  0  0  0  0  0  0
  -30.8747    0.4084   -6.8448 O   0  0  0  0  0  0  0  0  0  0  0  0
  -32.0330   -1.4235   -5.3102 O   0  0  0  0  0  0  0  0  0  0  0  0
  -29.6124   -1.7451   -6.2497 O   0  0  0  0  0  0  0  0  0  0  0  0
  -31.6085   -1.8661   -7.8927 O   0  0  0  0  0  0  0  0  0  0  0  0
  -31.6198   -3.2840   -7.8556 C   0  0  0  0  0  0  0  0  0  0  0  0
  -31.8162   -3.8359   -9.2773 C   0  0  1  0  0  0  0  0  0  0  0  0
  -33.0831   -3.4160   -9.7439 O   0  0  0  0  0  0  0  0  0  0  0  0
  -30.8506   -3.2963  -10.3285 C   0  0  1  0  0  0  0  0  0  0  0  0
  -29.6565   -4.0586  -10.4080 O   0  0  0  0  0  0  0  0  0  0  0  0
  -31.6683   -3.2528  -11.6232 C   0  0  1  0  0  0  0  0  0  0  0  0
  -31.5049   -4.3622  -12.4894 O   0  0  0  0  0  0  0  0  0  0  0  0
  -33.1177   -3.2170  -11.1221 C   0  0  2  0  0  0  0  0  0  0  0  0
  -33.8575   -1.9348  -11.4277 N   0  0  0  0  0  0  0  0  0  0  0  0
  -33.7156   -0.7270  -10.8451 C   0  0  0  0  0  0  0  0  0  0  0  0
  -34.4608    0.2055  -11.3825 N   0  0  0  0  0  0  0  0  0  0  0  0
  -35.0733   -0.4116  -12.4044 C   0  0  0  0  0  0  0  0  0  0  0  0
  -35.9351    0.0738  -13.4120 C   0  0  0  0  0  0  0  0  0  0  0  0
  -36.2865    1.4138  -13.5147 N   0  0  0  0  0  0  0  0  0  0  0  0
  -36.4026   -0.7988  -14.3436 N   0  0  0  0  0  0  0  0  0  0  0  0
  -35.9907   -2.0719  -14.2663 C   0  0  0  0  0  0  0  0  0  0  0  0
  -35.1531   -2.6420  -13.3871 N   0  0  0  0  0  0  0  0  0  0  0  0
  -34.7247   -1.7472  -12.4640 C   0  0  0  0  0  0  0  0  0  0  0  0
  1  2  2  0
  1  3  1  0
  1  4  1  0
  1  8  1  0
  5  6  2  0
  5  7  1  6
  5  8  1  0
  5 12  1  0
  9 10  2  0
  9 11  1  1
  9 12  1  0
  9 13  1  0
 13 14  1  0
 15 14  1  1
 15 16  1  0
 15 17  1  0
 16 21  1  0
 17 18  1  6
 17 19  1  0
 19 20  1  6
 19 21  1  0
 21 22  1  1
 22 23  1  0
 22 31  1  0
 23 24  2  0
 24 25  1  0
 25 26  1  0
 25 31  2  0
 26 27  1  0
 26 28  2  0
 28 29  1  0
 29 30  2  0
 30 31  1  0
M  CHG  4   3  -1   4  -1   7  -1  11  -1
M  END
$$$$
