7OLI_ligand
     RDKit          3D

 20 22  0  0  1  0  0  0  0  0999 V2000
   12.1704   23.8004   34.2192 O   0  0  0  0  0  0  0  0  0  0  0  0
   11.0423   24.1096   33.8453 C   0  0  0  0  0  0  0  0  0  0  0  0
   10.6667   25.3974   33.6044 N   0  0  0  0  0  0  0  0  0  0  0  0
    9.4295   25.8073   33.1664 C   0  0  0  0  0  0  0  0  0  0  0  0
    9.1867   27.1861   33.0510 N   0  0  0  0  0  0  0  0  0  0  0  0
    8.5149   24.9393   32.8848 N   0  0  0  0  0  0  0  0  0  0  0  0
    8.7948   23.6176   33.1197 C   0  0  0  0  0  0  0  0  0  0  0  0
    9.9578   23.1735   33.5871 C   0  0  0  0  0  0  0  0  0  0  0  0
    9.8400   21.8476   33.7057 N   0  0  0  0  0  0  0  0  0  0  0  0
    8.6345   21.4257   33.2674 C   0  0  0  0  0  0  0  0  0  0  0  0
    8.2421   20.2590   33.2112 O   0  0  0  0  0  0  0  0  0  0  0  0
    7.9776   22.5609   32.8973 N   0  0  0  0  0  0  0  0  0  0  0  0
    6.7201   22.6273   32.1803 C   0  0  2  0  0  0  0  0  0  0  0  0
    6.9687   22.9734   30.8530 O   0  0  0  0  0  0  0  0  0  0  0  0
    5.6428   23.5776   32.6929 C   0  0  0  0  0  0  0  0  0  0  0  0
    4.8975   23.9379   31.4138 C   0  0  2  0  0  0  0  0  0  0  0  0
    3.7379   23.1521   31.2518 O   0  0  0  0  0  0  0  0  0  0  0  0
    5.9117   23.7277   30.2756 C   0  0  1  0  0  0  0  0  0  0  0  0
    6.5370   24.9866   29.6536 C   0  0  0  0  0  0  0  0  0  0  0  0
    6.9006   25.9552   30.6098 O   0  0  0  0  0  0  0  0  0  0  0  0
  1  2  2  0
  2  3  1  0
  2  8  1  0
  3  4  1  0
  4  5  1  0
  4  6  2  0
  6  7  1  0
  7  8  2  0
  7 12  1  0
  8  9  1  0
  9 10  1  0
 10 11  2  0
 10 12  1  0
 13 12  1  1
 13 14  1  0
 13 15  1  0
 14 18  1  0
 15 16  1  0
 16 17  1  6
 16 18  1  0
 18 19  1  1
 19 20  1  0
M  END
$$$$
