1SQ5_ligand
     RDKit          3D

 15 14  0  0  1  0  0  0  0  0999 V2000
   57.8627  -39.8433    5.4355 O   0  0  0  0  0  0  0  0  0  0  0  0
   55.5509  -39.5119    4.5445 C   0  0  0  0  0  0  0  0  0  0  0  0
   57.0316  -39.0293    4.6331 C   0  0  0  0  0  0  0  0  0  0  0  0
   55.0089  -39.7902    5.9760 C   0  0  0  0  0  0  0  0  0  0  0  0
   54.7546  -38.3197    3.9687 C   0  0  0  0  0  0  0  0  0  0  0  0
   55.4045  -40.7577    3.5819 C   0  0  1  0  0  0  0  0  0  0  0  0
   56.1864  -41.8460    4.0524 O   0  0  0  0  0  0  0  0  0  0  0  0
   53.9391  -41.2655    3.4146 C   0  0  0  0  0  0  0  0  0  0  0  0
   53.4196  -41.9351    4.3056 O   0  0  0  0  0  0  0  0  0  0  0  0
   53.1933  -40.9728    2.3350 N   0  0  0  0  0  0  0  0  0  0  0  0
   53.5673  -40.3491    1.0654 C   0  0  0  0  0  0  0  0  0  0  0  0
   53.1201  -41.1762   -0.1671 C   0  0  0  0  0  0  0  0  0  0  0  0
   53.6226  -42.6344   -0.1565 C   0  0  0  0  0  0  0  0  0  0  0  0
   54.8422  -42.8303    0.0431 O   0  0  0  0  0  0  0  0  0  0  0  0
   52.7845  -43.5411   -0.3583 O   0  0  0  0  0  0  0  0  0  0  0  0
  1  3  1  0
  2  3  1  0
  2  4  1  0
  2  5  1  0
  2  6  1  0
  6  7  1  1
  6  8  1  0
  8  9  2  0
  8 10  1  0
 10 11  1  0
 11 12  1  0
 12 13  1  0
 13 14  1  0
 13 15  2  0
M  CHG  1  14  -1
M  END
$$$$
