7UJF_ligand
     RDKit          3D

 32 36  0  0  1  0  0  0  0  0999 V2000
  -19.1344  -41.9025  -61.7732 C   0  0  0  0  0  0  0  0  0  0  0  0
  -18.9983  -42.7772  -60.5271 C   0  0  1  0  0  0  0  0  0  0  0  0
  -17.5667  -42.7855  -59.9786 C   0  0  0  0  0  0  0  0  0  0  0  0
  -20.0482  -42.2524  -59.5379 C   0  0  0  0  0  0  0  0  0  0  0  0
  -20.9442  -41.2787  -60.3088 C   0  0  0  0  0  0  0  0  0  0  0  0
  -20.6159  -41.5033  -61.7961 N   0  0  1  0  0  0  0  0  0  0  0  0
  -20.9958  -40.3014  -62.6920 C   0  0  0  0  0  0  0  0  0  0  0  0
  -20.6232  -40.5018  -64.1664 C   0  0  0  0  0  0  0  0  0  0  0  0
  -19.2069  -40.5091  -64.2998 O   0  0  0  0  0  0  0  0  0  0  0  0
  -18.6368  -40.6999  -65.5388 C   0  0  0  0  0  0  0  0  0  0  0  0
  -17.2770  -40.9935  -65.5424 C   0  0  0  0  0  0  0  0  0  0  0  0
  -16.6108  -41.2437  -66.7333 C   0  0  0  0  0  0  0  0  0  0  0  0
  -19.3258  -40.6103  -66.7560 C   0  0  0  0  0  0  0  0  0  0  0  0
  -18.6500  -40.8219  -67.9548 C   0  0  0  0  0  0  0  0  0  0  0  0
  -17.2928  -41.1618  -67.9507 C   0  0  0  0  0  0  0  0  0  0  0  0
  -16.5665  -41.4820  -69.2690 C   0  0  2  0  0  0  0  0  0  0  0  0
  -15.8486  -42.8402  -69.1497 C   0  0  0  0  0  0  0  0  0  0  0  0
  -16.5964  -44.0001  -68.9026 C   0  0  0  0  0  0  0  0  0  0  0  0
  -15.9819  -45.2138  -68.6133 C   0  0  0  0  0  0  0  0  0  0  0  0
  -14.5937  -45.2890  -68.5814 C   0  0  0  0  0  0  0  0  0  0  0  0
  -13.9691  -46.4585  -68.2498 O   0  0  0  0  0  0  0  0  0  0  0  0
  -13.8348  -44.1636  -68.8729 C   0  0  0  0  0  0  0  0  0  0  0  0
  -14.4375  -42.9363  -69.1605 C   0  0  0  0  0  0  0  0  0  0  0  0
  -13.5650  -41.7375  -69.5040 C   0  0  0  0  0  0  0  0  0  0  0  0
  -14.2340  -40.4039  -69.1619 C   0  0  0  0  0  0  0  0  0  0  0  0
  -15.6388  -40.3381  -69.7972 C   0  0  2  0  0  0  0  0  0  0  0  0
  -16.2752  -38.9435  -69.6998 C   0  0  0  0  0  0  0  0  0  0  0  0
  -16.1470  -38.1668  -68.5392 C   0  0  0  0  0  0  0  0  0  0  0  0
  -16.6980  -36.8911  -68.4838 C   0  0  0  0  0  0  0  0  0  0  0  0
  -17.3588  -36.3813  -69.5967 C   0  0  0  0  0  0  0  0  0  0  0  0
  -17.4781  -37.1327  -70.7617 C   0  0  0  0  0  0  0  0  0  0  0  0
  -16.9432  -38.4165  -70.8109 C   0  0  0  0  0  0  0  0  0  0  0  0
  1  2  1  0
  1  6  1  0
  2  3  1  1
  2  4  1  0
  4  5  1  0
  5  6  1  0
  6  7  1  6
  7  8  1  0
  8  9  1  0
  9 10  1  0
 10 11  2  0
 10 13  1  0
 11 12  1  0
 12 15  2  0
 13 14  2  0
 14 15  1  0
 16 15  1  1
 16 17  1  0
 16 26  1  0
 17 18  2  0
 17 23  1  0
 18 19  1  0
 19 20  2  0
 20 21  1  0
 20 22  1  0
 22 23  2  0
 23 24  1  0
 24 25  1  0
 25 26  1  0
 26 27  1  1
 27 28  2  0
 27 32  1  0
 28 29  1  0
 29 30  2  0
 30 31  1  0
 31 32  2  0
M  CHG  1   6   1
M  END
$$$$
