7MEU_ligand
     RDKit          3D

 33 35  0  0  1  0  0  0  0  0999 V2000
    8.7718    7.5317   95.3875 P   0  0  2  0  0  0  0  0  0  0  0  0
    7.3743    6.9572   95.4441 O   0  0  0  0  0  0  0  0  0  0  0  0
    9.0333    8.9931   95.1089 O   0  0  0  0  0  0  0  0  0  0  0  0
    9.6853    6.6202   94.2747 O   0  0  0  0  0  0  0  0  0  0  0  0
    9.5748    7.0928   96.8503 O   0  0  0  0  0  0  0  0  0  0  0  0
   11.2044    6.6455   93.4960 P   0  0  2  0  0  0  0  0  0  0  0  0
   11.8038    8.0180   93.7007 O   0  0  0  0  0  0  0  0  0  0  0  0
   11.0423    6.0322   92.1242 O   0  0  0  0  0  0  0  0  0  0  0  0
   12.0204    5.5393   94.5037 O   0  0  0  0  0  0  0  0  0  0  0  0
   11.8029    3.8905   95.0226 P   0  0  0  0  0  0  0  0  0  0  0  0
   10.9838    3.9859   96.3223 O   0  0  0  0  0  0  0  0  0  0  0  0
   13.2127    3.3182   95.2463 O   0  0  0  0  0  0  0  0  0  0  0  0
   11.0360    3.1615   93.9056 O   0  0  0  0  0  0  0  0  0  0  0  0
   10.8633    7.6368   97.0948 C   0  0  0  0  0  0  0  0  0  0  0  0
   10.9803    8.2024   98.5236 C   0  0  1  0  0  0  0  0  0  0  0  0
   10.0724    9.2772   98.7640 O   0  0  0  0  0  0  0  0  0  0  0  0
   10.6682    7.2088   99.6430 C   0  0  1  0  0  0  0  0  0  0  0  0
   11.7426    6.3423   99.9597 O   0  0  0  0  0  0  0  0  0  0  0  0
   10.2106    8.0895  100.7989 C   0  0  1  0  0  0  0  0  0  0  0  0
   11.2673    8.6804  101.5388 O   0  0  0  0  0  0  0  0  0  0  0  0
    9.4509    9.1711  100.0215 C   0  0  2  0  0  0  0  0  0  0  0  0
    8.0259    8.9254   99.8801 N   0  0  0  0  0  0  0  0  0  0  0  0
    7.3438    8.5064   98.7487 C   0  0  0  0  0  0  0  0  0  0  0  0
    5.9932    8.3835   99.0037 N   0  0  0  0  0  0  0  0  0  0  0  0
    4.9718    8.0139   98.0385 C   0  0  0  0  0  0  0  0  0  0  0  0
    5.8091    8.7618  100.3228 C   0  0  0  0  0  0  0  0  0  0  0  0
    4.6107    8.8757  101.1361 C   0  0  0  0  0  0  0  0  0  0  0  0
    3.4558    8.6194  100.8226 O   0  0  0  0  0  0  0  0  0  0  0  0
    4.9501    9.3331  102.3856 N   0  0  0  0  0  0  0  0  0  0  0  0
    6.2041    9.6475  102.8795 C   0  0  0  0  0  0  0  0  0  0  0  0
    6.2971   10.1158  104.2048 N   0  0  0  0  0  0  0  0  0  0  0  0
    7.2570    9.5101  102.1419 N   0  0  0  0  0  0  0  0  0  0  0  0
    7.0521    9.0758  100.8615 C   0  0  0  0  0  0  0  0  0  0  0  0
  1  2  1  1
  1  3  2  0
  1  4  1  0
  1  5  1  0
  4  6  1  0
  5 14  1  0
  6  7  1  6
  6  8  2  0
  6  9  1  0
  9 10  1  0
 10 11  1  0
 10 12  2  0
 10 13  1  0
 15 14  1  6
 15 16  1  0
 15 17  1  0
 16 21  1  0
 17 18  1  1
 17 19  1  0
 19 20  1  6
 19 21  1  0
 21 22  1  6
 22 23  1  0
 22 33  1  0
 23 24  2  0
 24 25  1  0
 24 26  1  0
 26 27  1  0
 26 33  2  0
 27 28  2  0
 27 29  1  0
 29 30  1  0
 30 31  1  0
 30 32  2  0
 32 33  1  0
M  CHG  5   2  -1   7  -1  11  -1  13  -1  24   1
M  END
$$$$
