7BHX_ligand
     RDKit          3D

 21 23  0  0  1  0  0  0  0  0999 V2000
   30.3466   54.1073   11.7325 C   0  0  0  0  0  0  0  0  0  0  0  0
   31.7383   53.3958   13.7080 C   0  0  0  0  0  0  0  0  0  0  0  0
   33.2481   52.0147   14.9079 C   0  0  0  0  0  0  0  0  0  0  0  0
   33.1543   48.8420   18.7067 C   0  0  0  0  0  0  0  0  0  0  0  0
   32.6014   49.3304   16.5030 C   0  0  0  0  0  0  0  0  0  0  0  0
   30.8979   52.1636   15.6677 C   0  0  0  0  0  0  0  0  0  0  0  0
   29.8736   51.8033   16.5645 C   0  0  0  0  0  0  0  0  0  0  0  0
   28.6109   52.3854   16.4813 C   0  0  0  0  0  0  0  0  0  0  0  0
   28.3645   53.3618   15.5229 C   0  0  0  0  0  0  0  0  0  0  0  0
   29.3655   53.7384   14.6323 C   0  0  0  0  0  0  0  0  0  0  0  0
   30.6199   53.1098   14.6541 C   0  0  0  0  0  0  0  0  0  0  0  0
   27.3501   51.8869   17.5505 Cl  0  0  0  0  0  0  0  0  0  0  0  0
   31.5244   54.2331   12.5944 N   0  0  0  0  0  0  0  0  0  0  0  0
   32.6524   54.8409   11.8802 C   0  0  0  0  0  0  0  0  0  0  0  0
   32.2250   51.6307   15.7595 N   0  0  0  0  0  0  0  0  0  0  0  0
   34.3825   51.5582   15.0799 O   0  0  0  0  0  0  0  0  0  0  0  0
   32.9197   52.9157   13.8841 N   0  0  0  0  0  0  0  0  0  0  0  0
   32.5168   50.6998   16.7840 C   0  0  0  0  0  0  0  0  0  0  0  0
   32.9196   48.4051   17.4428 N   0  0  0  0  0  0  0  0  0  0  0  0
   33.0725   50.1864   19.0760 C   0  0  0  0  0  0  0  0  0  0  0  0
   32.7505   51.1284   18.0975 C   0  0  0  0  0  0  0  0  0  0  0  0
  1 13  1  0
  2 11  1  0
  2 13  1  0
  2 17  2  0
  3 15  1  0
  3 16  2  0
  3 17  1  0
  4 19  2  0
  4 20  1  0
  5 18  2  0
  5 19  1  0
  6  7  1  0
  6 11  2  0
  6 15  1  0
  7  8  2  0
  8  9  1  0
  8 12  1  0
  9 10  2  0
 10 11  1  0
 13 14  1  0
 15 18  1  0
 18 21  1  0
 20 21  2  0
M  END
$$$$
