7TM6_ligand
     RDKit          3D

 10  9  0  0  1  0  0  0  0  0999 V2000
   -0.3034  -25.4300   47.0348 P   0  0  0  0  0  0  0  0  0  0  0  0
   -0.3852  -26.9225   46.6723 O   0  0  0  0  0  0  0  0  0  0  0  0
    1.0317  -24.9462   47.6091 O   0  0  0  0  0  0  0  0  0  0  0  0
   -1.5610  -24.8504   47.6962 O   0  0  0  0  0  0  0  0  0  0  0  0
   -4.1263  -24.2186   43.6081 O   0  0  0  0  0  0  0  0  0  0  0  0
   -3.4196  -22.9719   41.9446 O   0  0  0  0  0  0  0  0  0  0  0  0
   -0.3048  -24.5893   45.3801 C   0  0  0  0  0  0  0  0  0  0  0  0
   -1.7397  -23.6325   43.4362 C   0  0  0  0  0  0  0  0  0  0  0  0
   -3.2135  -23.6289   42.9776 C   0  0  0  0  0  0  0  0  0  0  0  0
   -1.6100  -24.6089   44.6083 N   0  0  0  0  0  0  0  0  0  0  0  0
  1  2  2  0
  1  3  1  0
  1  4  1  0
  1  7  1  0
  5  9  1  0
  6  9  2  0
  7 10  1  0
  8  9  1  0
  8 10  1  0
M  CHG  4   3  -1   4  -1   5  -1  10   1
M  END
$$$$
