7ZYS_ligand
     RDKit          3D

 44 45  0  0  1  0  0  0  0  0999 V2000
    9.1291  -11.2752    4.6742 N   0  0  0  0  0  0  0  0  0  0  0  0
    2.3419  -15.1110    4.1291 C   0  0  0  0  0  0  0  0  0  0  0  0
    1.6928  -14.1125    3.1589 C   0  0  2  0  0  0  0  0  0  0  0  0
   10.0282  -11.1667    6.7531 N   0  0  0  0  0  0  0  0  0  0  0  0
    1.2665  -14.7736    1.8331 C   0  0  0  0  0  0  0  0  0  0  0  0
   10.2679  -16.5866    2.3301 O   0  0  0  0  0  0  0  0  0  0  0  0
    7.2067  -13.3454    5.7580 C   0  0  1  0  0  0  0  0  0  0  0  0
    3.8890  -15.0193    7.1603 C   0  0  0  0  0  0  0  0  0  0  0  0
    2.6691  -15.7111    6.5259 C   0  0  0  0  0  0  0  0  0  0  0  0
    2.0639  -14.9426    5.4331 N   0  0  0  0  0  0  0  0  0  0  0  0
    4.9853  -14.6233    6.1549 C   0  0  0  0  0  0  0  0  0  0  0  0
    3.1088  -15.9710    3.6941 O   0  0  0  0  0  0  0  0  0  0  0  0
    6.1500  -13.8332    6.7749 C   0  0  0  0  0  0  0  0  0  0  0  0
    1.6138  -11.3987    4.1290 O   0  0  0  0  0  0  0  0  0  0  0  0
    9.1376  -11.6915    5.9317 C   0  0  0  0  0  0  0  0  0  0  0  0
    2.6316  -13.0255    2.9083 N   0  0  0  0  0  0  0  0  0  0  0  0
    8.2998  -12.6037    6.4233 N   0  0  0  0  0  0  0  0  0  0  0  0
    7.7851  -14.4848    4.8768 C   0  0  0  0  0  0  0  0  0  0  0  0
    7.2409  -14.7104    3.7948 O   0  0  0  0  0  0  0  0  0  0  0  0
    0.4501  -13.8299    0.9281 C   0  0  0  0  0  0  0  0  0  0  0  0
    0.0425  -14.4853   -0.4008 C   0  0  0  0  0  0  0  0  0  0  0  0
   -0.7985  -13.5597   -1.2888 C   0  0  0  0  0  0  0  0  0  0  0  0
    2.5048  -11.7691    3.3619 C   0  0  0  0  0  0  0  0  0  0  0  0
    3.5475  -10.7427    2.8789 C   0  0  2  0  0  0  0  0  0  0  0  0
    2.8679   -9.5225    2.2265 C   0  0  0  0  0  0  0  0  0  0  0  0
    3.8006   -8.3041    2.1394 C   0  0  0  0  0  0  0  0  0  0  0  0
    3.1367   -7.0559    1.5441 C   0  0  0  0  0  0  0  0  0  0  0  0
    2.8074   -7.1884    0.0509 C   0  0  0  0  0  0  0  0  0  0  0  0
    5.8312  -11.4120    2.1167 C   0  0  0  0  0  0  0  0  0  0  0  0
    6.6495  -11.9460    0.9279 C   0  0  0  0  0  0  0  0  0  0  0  0
    8.1594  -11.7755    1.0928 C   0  0  0  0  0  0  0  0  0  0  0  0
    8.9565  -12.8602    1.4752 C   0  0  0  0  0  0  0  0  0  0  0  0
   10.3349  -12.7017    1.6723 C   0  0  0  0  0  0  0  0  0  0  0  0
   11.1972  -13.8728    2.1333 C   0  0  0  0  0  0  0  0  0  0  0  0
   10.1717  -15.8326    3.2970 C   0  0  0  0  0  0  0  0  0  0  0  0
    9.4415  -16.3225    4.5612 C   0  0  0  0  0  0  0  0  0  0  0  0
   10.9140  -11.4464    1.4607 C   0  0  0  0  0  0  0  0  0  0  0  0
   10.1251  -10.3609    1.0811 C   0  0  0  0  0  0  0  0  0  0  0  0
    8.7519  -10.5230    0.9024 C   0  0  0  0  0  0  0  0  0  0  0  0
    2.3237   -5.9140   -0.5042 N   0  0  0  0  0  0  0  0  0  0  0  0
    4.5089  -11.2979    1.9166 N   0  0  0  0  0  0  0  0  0  0  0  0
   10.6321  -14.5693    3.2882 N   0  0  0  0  0  0  0  0  0  0  0  0
    8.8259  -15.2262    5.3151 N   0  0  0  0  0  0  0  0  0  0  0  0
    6.3721  -11.1086    3.1787 O   0  0  0  0  0  0  0  0  0  0  0  0
  1 15  2  0
  2  3  1  0
  2 10  1  0
  2 12  2  0
  3  5  1  6
  3 16  1  0
  4 15  1  0
  5 20  1  0
  6 35  2  0
  7 13  1  0
  7 17  1  1
  7 18  1  0
  8  9  1  0
  8 11  1  0
  9 10  1  0
 11 13  1  0
 14 23  2  0
 15 17  1  0
 16 23  1  0
 18 19  2  0
 18 43  1  0
 20 21  1  0
 21 22  1  0
 23 24  1  0
 24 25  1  6
 24 41  1  0
 25 26  1  0
 26 27  1  0
 27 28  1  0
 28 40  1  0
 29 30  1  0
 29 41  1  0
 29 44  2  0
 30 31  1  0
 31 32  2  0
 31 39  1  0
 32 33  1  0
 33 34  1  0
 33 37  2  0
 34 42  1  0
 35 36  1  0
 35 42  1  0
 36 43  1  0
 37 38  1  0
 38 39  2  0
M  CHG  2   1   1  40   1
M  END
$$$$
