1J3J_ligand
     RDKit          3D

 17 18  0  0  1  0  0  0  0  0999 V2000
   29.1360  -27.5456    8.9798 N   0  0  0  0  0  0  0  0  0  0  0  0
   29.7395  -26.4172    8.5490 C   0  0  0  0  0  0  0  0  0  0  0  0
   29.4583  -28.6960    8.3375 C   0  0  0  0  0  0  0  0  0  0  0  0
   30.3875  -28.7457    7.2751 C   0  0  0  0  0  0  0  0  0  0  0  0
   30.9583  -27.5171    6.8690 C   0  0  0  0  0  0  0  0  0  0  0  0
   30.6038  -26.3918    7.5247 N   0  0  0  0  0  0  0  0  0  0  0  0
   30.7805  -30.0341    6.6497 C   0  0  0  0  0  0  0  0  0  0  0  0
   30.2939  -30.4020    5.3931 C   0  0  0  0  0  0  0  0  0  0  0  0
   30.6816  -31.6084    4.8176 C   0  0  0  0  0  0  0  0  0  0  0  0
   31.5791  -32.4321    5.4935 C   0  0  0  0  0  0  0  0  0  0  0  0
   32.0649  -32.0811    6.7478 C   0  0  0  0  0  0  0  0  0  0  0  0
   31.6583  -30.8846    7.3233 C   0  0  0  0  0  0  0  0  0  0  0  0
   28.8156  -29.8376    8.8067 N   0  0  0  0  0  0  0  0  0  0  0  0
   29.4382  -25.2543    9.2678 N   0  0  0  0  0  0  0  0  0  0  0  0
   31.9961  -27.3646    5.7585 C   0  0  0  0  0  0  0  0  0  0  0  0
   33.3462  -26.8155    6.2549 C   0  0  0  0  0  0  0  0  0  0  0  0
   32.1295  -33.8835    4.7607 Cl  0  0  0  0  0  0  0  0  0  0  0  0
  1  2  2  0
  1  3  1  0
  2  6  1  0
  2 14  1  0
  3  4  2  0
  3 13  1  0
  4  5  1  0
  4  7  1  0
  5  6  2  0
  5 15  1  0
  7  8  2  0
  7 12  1  0
  8  9  1  0
  9 10  2  0
 10 11  1  0
 10 17  1  0
 11 12  2  0
 15 16  1  0
M  CHG  1   6   1
M  END
$$$$
