1XM6_ligand
     RDKit          3D

 19 20  0  0  1  0  0  0  0  0999 V2000
   82.7441    1.3794   13.0060 O   0  0  0  0  0  0  0  0  0  0  0  0
   83.6138    1.5518   12.1581 C   0  0  0  0  0  0  0  0  0  0  0  0
   84.4112    0.5638   11.7176 O   0  0  0  0  0  0  0  0  0  0  0  0
   83.9915    2.7000   11.4900 N   0  0  0  0  0  0  0  0  0  0  0  0
   84.9512    2.3910   10.4593 C   0  0  0  0  0  0  0  0  0  0  0  0
   85.4390    0.9882   10.8326 C   0  0  2  0  0  0  0  0  0  0  0  0
   85.3528   -0.0222    9.6732 C   0  0  0  0  0  0  0  0  0  0  0  0
   86.8436    0.9557   11.4610 C   0  0  0  0  0  0  0  0  0  0  0  0
   87.9228    1.5554   10.8074 C   0  0  0  0  0  0  0  0  0  0  0  0
   89.2093    1.4704   11.3291 C   0  0  0  0  0  0  0  0  0  0  0  0
   89.4489    0.7906   12.5327 C   0  0  0  0  0  0  0  0  0  0  0  0
   90.7097    0.6410   13.0840 O   0  0  0  0  0  0  0  0  0  0  0  0
   91.8421    1.1871   12.4126 C   0  0  0  0  0  0  0  0  0  0  0  0
   88.3659    0.2280   13.2282 C   0  0  0  0  0  0  0  0  0  0  0  0
   87.0791    0.2963   12.6695 C   0  0  0  0  0  0  0  0  0  0  0  0
   88.6320   -0.3815   14.4407 O   0  0  0  0  0  0  0  0  0  0  0  0
   87.5534   -0.8822   15.2326 C   0  0  0  0  0  0  0  0  0  0  0  0
   88.0488   -1.0917   16.6652 C   0  0  0  0  0  0  0  0  0  0  0  0
   88.3093    0.2445   17.3667 C   0  0  0  0  0  0  0  0  0  0  0  0
  1  2  2  0
  2  3  1  0
  2  4  1  0
  3  6  1  0
  4  5  1  0
  5  6  1  0
  6  7  1  6
  6  8  1  0
  8  9  2  0
  8 15  1  0
  9 10  1  0
 10 11  2  0
 11 12  1  0
 11 14  1  0
 12 13  1  0
 14 15  2  0
 14 16  1  0
 16 17  1  0
 17 18  1  0
 18 19  1  0
M  END
$$$$
