7RH8_ligand
     RDKit          3D

 29 30  0  0  1  0  0  0  0  0999 V2000
  -24.6110  -58.6731   -8.0575 P   0  0  2  0  0  0  0  0  0  0  0  0
  -24.3645  -57.6665   -9.1594 O   0  0  0  0  0  0  0  0  0  0  0  0
  -23.5080  -59.2468   -7.1999 O   0  0  0  0  0  0  0  0  0  0  0  0
  -25.4922  -59.9709   -8.7196 O   0  0  0  0  0  0  0  0  0  0  0  0
  -25.8344  -58.0310   -7.0340 O   0  0  0  0  0  0  0  0  0  0  0  0
  -25.2349  -61.5684   -9.2407 P   0  0  2  0  0  0  0  0  0  0  0  0
  -25.1714  -62.4579   -8.0203 O   0  0  0  0  0  0  0  0  0  0  0  0
  -24.1389  -61.5213  -10.2810 O   0  0  0  0  0  0  0  0  0  0  0  0
  -26.7134  -61.8424  -10.0192 O   0  0  0  0  0  0  0  0  0  0  0  0
  -27.2546  -63.1571  -11.0114 P   0  0  0  0  0  0  0  0  0  0  0  0
  -28.6959  -62.8159  -11.4261 O   0  0  0  0  0  0  0  0  0  0  0  0
  -26.2779  -63.2120  -12.1992 O   0  0  0  0  0  0  0  0  0  0  0  0
  -27.1665  -64.4099  -10.1198 O   0  0  0  0  0  0  0  0  0  0  0  0
  -26.3345  -58.8693   -6.0068 C   0  0  0  0  0  0  0  0  0  0  0  0
  -27.3416  -58.0881   -5.1445 C   0  0  1  0  0  0  0  0  0  0  0  0
  -26.6275  -57.0622   -4.4594 O   0  0  0  0  0  0  0  0  0  0  0  0
  -27.2158  -55.8143   -4.6562 C   0  0  2  0  0  0  0  0  0  0  0  0
  -27.9388  -55.9037   -5.9979 C   0  0  2  0  0  0  0  0  0  0  0  0
  -28.8942  -54.8638   -6.1082 O   0  0  0  0  0  0  0  0  0  0  0  0
  -28.4401  -57.3504   -5.9341 C   0  0  2  0  0  0  0  0  0  0  0  0
  -29.7185  -57.5054   -5.3353 O   0  0  0  0  0  0  0  0  0  0  0  0
  -26.2312  -54.7471   -4.4975 N   0  0  0  0  0  0  0  0  0  0  0  0
  -25.1336  -54.7204   -5.3291 C   0  0  0  0  0  0  0  0  0  0  0  0
  -26.3709  -53.8120   -3.4881 C   0  0  0  0  0  0  0  0  0  0  0  0
  -27.2707  -53.7661   -2.6475 O   0  0  0  0  0  0  0  0  0  0  0  0
  -25.3816  -52.8583   -3.4723 N   0  0  0  0  0  0  0  0  0  0  0  0
  -24.2809  -52.7243   -4.2685 C   0  0  0  0  0  0  0  0  0  0  0  0
  -23.4779  -51.7994   -4.1544 O   0  0  0  0  0  0  0  0  0  0  0  0
  -24.1725  -53.7781   -5.2565 C   0  0  0  0  0  0  0  0  0  0  0  0
  1  2  2  0
  1  3  1  1
  1  4  1  0
  1  5  1  0
  4  6  1  0
  5 14  1  0
  6  7  1  1
  6  8  2  0
  6  9  1  0
  9 10  1  0
 10 11  1  0
 10 12  2  0
 10 13  1  0
 15 14  1  6
 15 16  1  0
 15 20  1  0
 16 17  1  0
 17 18  1  0
 17 22  1  6
 18 19  1  1
 18 20  1  0
 20 21  1  1
 22 23  1  0
 22 24  1  0
 23 29  2  0
 24 25  2  0
 24 26  1  0
 26 27  1  0
 27 28  2  0
 27 29  1  0
M  CHG  4   3  -1   7  -1  11  -1  13  -1
M  END
$$$$
