7DIN_ligand
     RDKit          3D

 13 13  0  0  1  0  0  0  0  0999 V2000
   27.3728   -2.5222  -11.4749 S   0  0  0  0  0  0  0  0  0  0  0  0
   26.1395   -1.9478  -12.0210 O   0  0  0  0  0  0  0  0  0  0  0  0
   28.1959   -3.2489  -12.4475 O   0  0  0  0  0  0  0  0  0  0  0  0
   29.2556    4.3137  -14.9199 O   0  0  0  0  0  0  0  0  0  0  0  0
   28.8480    2.1878  -13.0663 N   0  0  0  0  0  0  0  0  0  0  0  0
   28.4201   -1.0216  -11.0165 C   0  0  0  0  0  0  0  0  0  0  0  0
   27.1944   -3.2182  -10.1975 O   0  0  0  0  0  0  0  0  0  0  0  0
   28.7761   -0.2125  -12.2731 C   0  0  0  0  0  0  0  0  0  0  0  0
   29.2397    1.2140  -11.9354 C   0  0  0  0  0  0  0  0  0  0  0  0
   29.6525    1.9653  -14.3645 C   0  0  0  0  0  0  0  0  0  0  0  0
   29.1625    2.9804  -15.4176 C   0  0  0  0  0  0  0  0  0  0  0  0
   28.4703    4.5624  -13.7569 C   0  0  0  0  0  0  0  0  0  0  0  0
   28.9228    3.6560  -12.5967 C   0  0  0  0  0  0  0  0  0  0  0  0
  1  2  2  0
  1  3  2  0
  1  6  1  0
  1  7  1  0
  4 11  1  0
  4 12  1  0
  5  9  1  0
  5 10  1  0
  5 13  1  0
  6  8  1  0
  8  9  1  0
 10 11  1  0
 12 13  1  0
M  CHG  2   5   1   7  -1
M  END
$$$$
