7C6P_ligand
     RDKit          3D

 21 23  0  0  1  0  0  0  0  0999 V2000
    3.6594  -14.6631   -7.7914 C   0  0  0  0  0  0  0  0  0  0  0  0
    3.8356  -17.5295  -10.8122 C   0  0  0  0  0  0  0  0  0  0  0  0
    4.4666  -16.3355  -10.8939 C   0  0  0  0  0  0  0  0  0  0  0  0
    5.3091  -15.8696  -12.0292 C   0  0  0  0  0  0  0  0  0  0  0  0
    5.8185  -16.7650  -12.9826 C   0  0  0  0  0  0  0  0  0  0  0  0
    6.5853  -16.3139  -14.0585 C   0  0  0  0  0  0  0  0  0  0  0  0
    6.8538  -14.9488  -14.2012 C   0  0  0  0  0  0  0  0  0  0  0  0
    6.3581  -14.0463  -13.2632 C   0  0  0  0  0  0  0  0  0  0  0  0
    5.5945  -14.5040  -12.1912 C   0  0  0  0  0  0  0  0  0  0  0  0
    3.7030  -15.6710   -8.7560 C   0  0  0  0  0  0  0  0  0  0  0  0
    3.0214  -16.8857   -8.5738 C   0  0  0  0  0  0  0  0  0  0  0  0
    2.3175  -17.0871   -7.3792 C   0  0  0  0  0  0  0  0  0  0  0  0
    2.2709  -16.0842   -6.4117 C   0  0  0  0  0  0  0  0  0  0  0  0
    2.9150  -14.8651   -6.6277 C   0  0  0  0  0  0  0  0  0  0  0  0
    3.0638  -17.9278   -9.6414 C   0  0  0  0  0  0  0  0  0  0  0  0
    4.4478  -15.4169   -9.8907 O   0  0  0  0  0  0  0  0  0  0  0  0
    7.0684  -17.2164  -14.9706 O   0  0  0  0  0  0  0  0  0  0  0  0
    7.5942  -14.4840  -15.2587 O   0  0  0  0  0  0  0  0  0  0  0  0
    2.4972  -19.0139   -9.5287 O   0  0  0  0  0  0  0  0  0  0  0  0
    2.8226  -13.8727   -5.6896 O   0  0  0  0  0  0  0  0  0  0  0  0
    4.3551  -13.4926   -7.9813 O   0  0  0  0  0  0  0  0  0  0  0  0
  1 10  2  0
  1 14  1  0
  1 21  1  0
  2  3  2  0
  2 15  1  0
  3  4  1  0
  3 16  1  0
  4  5  2  0
  4  9  1  0
  5  6  1  0
  6  7  2  0
  6 17  1  0
  7  8  1  0
  7 18  1  0
  8  9  2  0
 10 11  1  0
 10 16  1  0
 11 12  2  0
 11 15  1  0
 12 13  1  0
 13 14  2  0
 14 20  1  0
 15 19  2  0
M  END
$$$$
