1SQN_ligand
     RDKit          3D

 22 25  0  0  1  0  0  0  0  0999 V2000
   13.8023   27.5522    3.1897 O   0  0  0  0  0  0  0  0  0  0  0  0
   13.1937   26.7436    3.8870 C   0  0  0  0  0  0  0  0  0  0  0  0
   11.6794   26.5509    3.7842 C   0  0  0  0  0  0  0  0  0  0  0  0
   13.8765   25.8212    4.7783 C   0  0  0  0  0  0  0  0  0  0  0  0
   13.2524   25.0635    5.7084 C   0  0  0  0  0  0  0  0  0  0  0  0
   14.0058   24.0274    6.5429 C   0  0  0  0  0  0  0  0  0  0  0  0
   11.7278   25.1381    5.9746 C   0  0  2  0  0  0  0  0  0  0  0  0
   11.0653   26.2916    5.1656 C   0  0  0  0  0  0  0  0  0  0  0  0
   11.4578   25.2709    7.5053 C   0  0  2  0  0  0  0  0  0  0  0  0
   12.1824   24.1481    8.3118 C   0  0  1  0  0  0  0  0  0  0  0  0
   13.6957   24.2335    8.0302 C   0  0  0  0  0  0  0  0  0  0  0  0
    9.9394   25.3015    7.8401 C   0  0  0  0  0  0  0  0  0  0  0  0
    9.7059   25.4901    9.3574 C   0  0  0  0  0  0  0  0  0  0  0  0
   10.3558   24.3270   10.1630 C   0  0  2  0  0  0  0  0  0  0  0  0
   11.8751   24.3362    9.8232 C   0  0  1  0  0  0  0  0  0  0  0  0
    9.6420   22.9907    9.7746 C   0  0  0  0  0  0  0  0  0  0  0  0
   10.4237   24.4625   11.7335 C   0  0  1  0  0  0  0  0  0  0  0  0
    9.2366   24.0642   12.3977 O   0  0  0  0  0  0  0  0  0  0  0  0
   11.6040   23.5098   12.0968 C   0  0  0  0  0  0  0  0  0  0  0  0
   12.5156   23.4035   10.8569 C   0  0  0  0  0  0  0  0  0  0  0  0
   10.7180   25.8348   12.2182 C   0  0  0  0  0  0  0  0  0  0  0  0
   11.0297   26.9647   12.5712 C   0  0  0  0  0  0  0  0  0  0  0  0
  1  2  2  0
  2  3  1  0
  2  4  1  0
  3  8  1  0
  4  5  2  0
  5  6  1  0
  5  7  1  0
  6 11  1  0
  7  8  1  6
  7  9  1  0
  9 10  1  0
  9 12  1  6
 10 11  1  1
 10 15  1  0
 12 13  1  0
 13 14  1  0
 14 15  1  0
 14 16  1  1
 14 17  1  0
 15 20  1  1
 17 18  1  1
 17 19  1  0
 17 21  1  0
 19 20  1  0
 21 22  3  0
M  END
$$$$
