8AUH_ligand
     RDKit          3D

 11 10  0  0  1  0  0  0  0  0999 V2000
   19.0903   18.3383  -26.2924 N   0  0  0  0  0  0  0  0  0  0  0  0
   17.1213   17.3933  -27.1741 C   0  0  0  0  0  0  0  0  0  0  0  0
   16.4051   16.4358  -27.4733 O   0  0  0  0  0  0  0  0  0  0  0  0
   19.0316   15.9004  -26.4736 C   0  0  0  0  0  0  0  0  0  0  0  0
   20.3725   14.2379  -27.6225 C   0  0  0  0  0  0  0  0  0  0  0  0
   19.3387   13.2341  -28.1554 C   0  0  0  0  0  0  0  0  0  0  0  0
   16.5540   18.8023  -27.3993 C   0  0  0  0  0  0  0  0  0  0  0  0
   18.4781   17.2542  -26.6192 C   0  0  0  0  0  0  0  0  0  0  0  0
   19.8195   15.5488  -27.5192 O   0  0  0  0  0  0  0  0  0  0  0  0
   20.3302   18.2005  -25.6435 O   0  0  0  0  0  0  0  0  0  0  0  0
   18.7789   15.1767  -25.5083 O   0  0  0  0  0  0  0  0  0  0  0  0
  1  8  2  0
  1 10  1  0
  2  3  2  0
  2  7  1  0
  2  8  1  0
  4  8  1  0
  4  9  1  0
  4 11  2  0
  5  6  1  0
  5  9  1  0
M  END
$$$$
