8AP0_ligand
     RDKit          3D

 22 22  0  0  1  0  0  0  0  0999 V2000
   10.8226   19.4211    9.4082 C   0  0  1  0  0  0  0  0  0  0  0  0
   11.7396   20.1212    8.3995 C   0  0  1  0  0  0  0  0  0  0  0  0
   10.7503   20.9275    7.5662 C   0  0  1  0  0  0  0  0  0  0  0  0
    9.5198   20.0092    7.5195 C   0  0  1  0  0  0  0  0  0  0  0  0
    9.5949   18.9034    6.4402 C   0  0  0  0  0  0  0  0  0  0  0  0
   10.8030   20.2344   10.5666 O   0  0  0  0  0  0  0  0  0  0  0  0
   12.7487   20.9309    8.9880 O   0  0  0  0  0  0  0  0  0  0  0  0
   10.4829   22.1891    8.1560 O   0  0  0  0  0  0  0  0  0  0  0  0
    9.5165   19.4282    8.8249 O   0  0  0  0  0  0  0  0  0  0  0  0
    8.8404   17.7391    6.7192 O   0  0  0  0  0  0  0  0  0  0  0  0
    7.0954   17.6478    6.6142 P   0  0  0  0  0  0  0  0  0  0  0  0
    6.6749   18.4138    5.3489 O   0  0  0  0  0  0  0  0  0  0  0  0
    6.8083   16.1410    6.5201 O   0  0  0  0  0  0  0  0  0  0  0  0
    6.5413   18.2705    7.9041 O   0  0  0  0  0  0  0  0  0  0  0  0
    9.9226   19.7069   11.9509 P   0  0  1  0  0  0  0  0  0  0  0  0
    9.6205   18.2305   11.8697 O   0  0  0  0  0  0  0  0  0  0  0  0
   10.5589   20.3586   13.1568 O   0  0  0  0  0  0  0  0  0  0  0  0
    8.5087   20.5629   11.5702 O   0  0  0  0  0  0  0  0  0  0  0  0
    8.1937   22.2485   11.3737 P   0  0  0  0  0  0  0  0  0  0  0  0
    7.1515   22.3701   10.2543 O   0  0  0  0  0  0  0  0  0  0  0  0
    7.6685   22.7286   12.7319 O   0  0  0  0  0  0  0  0  0  0  0  0
    9.5526   22.8641   10.9980 O   0  0  0  0  0  0  0  0  0  0  0  0
  1  2  1  0
  1  6  1  1
  1  9  1  0
  2  3  1  0
  2  7  1  1
  3  4  1  0
  3  8  1  1
  4  5  1  6
  4  9  1  0
  5 10  1  0
  6 15  1  0
 10 11  1  0
 11 12  2  0
 11 13  1  0
 11 14  1  0
 15 16  2  0
 15 17  1  1
 15 18  1  0
 18 19  1  0
 19 20  2  0
 19 21  1  0
 19 22  1  0
M  CHG  5  13  -1  14  -1  17  -1  21  -1  22  -1
M  END
$$$$
