7BNH_ligand
     RDKit          3D

  9  9  0  0  1  0  0  0  0  0999 V2000
  -10.8085    2.5474    9.6401 C   0  0  0  0  0  0  0  0  0  0  0  0
  -11.7845    3.0166    9.0154 O   0  0  0  0  0  0  0  0  0  0  0  0
  -10.9472    1.9566   10.7355 O   0  0  0  0  0  0  0  0  0  0  0  0
   -9.4271    2.6762    9.0450 C   0  0  0  0  0  0  0  0  0  0  0  0
   -9.2077    3.4345    7.8782 C   0  0  0  0  0  0  0  0  0  0  0  0
   -7.9391    3.5373    7.3202 C   0  0  0  0  0  0  0  0  0  0  0  0
   -6.8743    2.8666    7.9117 C   0  0  0  0  0  0  0  0  0  0  0  0
   -7.0584    2.1188    9.0639 C   0  0  0  0  0  0  0  0  0  0  0  0
   -8.3220    2.0314    9.6304 C   0  0  0  0  0  0  0  0  0  0  0  0
  1  2  2  0
  1  3  1  0
  1  4  1  0
  4  5  2  0
  4  9  1  0
  5  6  1  0
  6  7  2  0
  7  8  1  0
  8  9  2  0
M  CHG  1   3  -1
M  END
$$$$
