7ULC_ligand
     RDKit          3D

 33 36  0  0  1  0  0  0  0  0999 V2000
   29.5383    3.2007   47.4135 N   0  0  0  0  0  0  0  0  0  0  0  0
   30.0482    4.9553   45.6226 C   0  0  1  0  0  0  0  0  0  0  0  0
   30.6630    4.1891   44.6081 O   0  0  0  0  0  0  0  0  0  0  0  0
   27.1502    8.3049   49.3293 P   0  0  0  0  0  0  0  0  0  0  0  0
   30.3388    4.3405   46.9866 C   0  0  1  0  0  0  0  0  0  0  0  0
   26.2044   -0.0901   47.8818 N   0  0  0  0  0  0  0  0  0  0  0  0
   23.4991   -0.2241   50.3078 O   0  0  0  0  0  0  0  0  0  0  0  0
   28.2029    2.9306   47.1779 C   0  0  0  0  0  0  0  0  0  0  0  0
   31.1965    2.1278   48.8084 N   0  0  0  0  0  0  0  0  0  0  0  0
   24.3464   -2.6827   51.3443 O   0  0  0  0  0  0  0  0  0  0  0  0
   27.7422    1.8467   47.9325 C   0  0  0  0  0  0  0  0  0  0  0  0
   32.6134    1.1765   50.3992 N   0  0  0  0  0  0  0  0  0  0  0  0
   28.2541   -0.4002   50.1710 O   0  0  0  0  0  0  0  0  0  0  0  0
   26.3172    1.3525   48.0452 C   0  0  0  0  0  0  0  0  0  0  0  0
   30.3590    0.4240   50.1402 N   0  0  0  0  0  0  0  0  0  0  0  0
   30.1528    5.3744   47.9049 O   0  0  0  0  0  0  0  0  0  0  0  0
   24.9133   -0.5915   48.3497 C   0  0  2  0  0  0  0  0  0  0  0  0
   28.5791    7.4207   48.8490 O   0  0  0  0  0  0  0  0  0  0  0  0
   24.7755   -0.6858   49.8848 C   0  0  2  0  0  0  0  0  0  0  0  0
   26.8046    7.8072   50.7394 O   0  0  0  0  0  0  0  0  0  0  0  0
   25.0729   -2.1536   50.2497 C   0  0  2  0  0  0  0  0  0  0  0  0
   24.7808   -2.8807   48.9573 C   0  0  0  0  0  0  0  0  0  0  0  0
   27.5352    9.7958   49.2997 O   0  0  0  0  0  0  0  0  0  0  0  0
   24.7104   -2.0279   47.9193 C   0  0  0  0  0  0  0  0  0  0  0  0
   32.0270    6.4509   45.6172 O   0  0  0  0  0  0  0  0  0  0  0  0
   28.8595    1.4182   48.6620 C   0  0  0  0  0  0  0  0  0  0  0  0
   29.9388    2.2190   48.2904 C   0  0  0  0  0  0  0  0  0  0  0  0
   31.3766    1.2671   49.7451 C   0  0  0  0  0  0  0  0  0  0  0  0
   29.0636    0.3909   49.6935 C   0  0  0  0  0  0  0  0  0  0  0  0
   30.2766    6.6599   47.3028 C   0  0  2  0  0  0  0  0  0  0  0  0
   28.9338    7.3789   47.4852 C   0  0  0  0  0  0  0  0  0  0  0  0
   30.6292    6.3549   45.8421 C   0  0  2  0  0  0  0  0  0  0  0  0
   26.0728    7.9480   48.2936 O   0  0  0  0  0  0  0  0  0  0  0  0
  5  1  1  1
  1  8  1  0
  1 27  1  0
  2  3  1  6
  2  5  1  0
  2 32  1  0
  4 18  1  0
  4 20  1  0
  4 23  2  0
  4 33  1  0
  5 16  1  0
  6 14  1  0
 17  6  1  1
 19  7  1  6
  8 11  2  0
  9 27  1  0
  9 28  2  0
 21 10  1  1
 11 14  1  0
 11 26  1  0
 12 28  1  0
 13 29  2  0
 15 28  1  0
 15 29  1  0
 16 30  1  0
 17 19  1  0
 17 24  1  0
 18 31  1  0
 19 21  1  0
 21 22  1  0
 22 24  2  0
 32 25  1  1
 26 27  2  0
 26 29  1  0
 30 31  1  6
 30 32  1  0
M  CHG  2  20  -1  33  -1
M  END
$$$$
