7F8T_ligand
     RDKit          3D

 53 58  0  0  1  0  0  0  0  0999 V2000
   24.1675   23.1980   93.8387 P   0  0  1  0  0  0  0  0  0  0  0  0
   25.6170   22.7991   93.9905 O   0  0  0  0  0  0  0  0  0  0  0  0
   23.5608   23.6085   92.5176 O   0  0  0  0  0  0  0  0  0  0  0  0
   23.2120   21.9431   94.5500 O   0  0  0  0  0  0  0  0  0  0  0  0
   21.7950   22.0464   94.5390 C   0  0  0  0  0  0  0  0  0  0  0  0
   21.1804   21.9455   95.9479 C   0  0  1  0  0  0  0  0  0  0  0  0
   21.6572   20.7817   96.6088 O   0  0  0  0  0  0  0  0  0  0  0  0
   21.5108   23.0653   96.9258 C   0  0  1  0  0  0  0  0  0  0  0  0
   20.6899   24.1989   96.7428 O   0  0  0  0  0  0  0  0  0  0  0  0
   21.3379   22.3940   98.2846 C   0  0  1  0  0  0  0  0  0  0  0  0
   20.0035   22.2917   98.7532 O   0  0  0  0  0  0  0  0  0  0  0  0
   21.8851   20.9981   97.9757 C   0  0  2  0  0  0  0  0  0  0  0  0
   23.3610   20.8250   98.2660 N   0  0  0  0  0  0  0  0  0  0  0  0
   24.4167   21.2397   97.5360 C   0  0  0  0  0  0  0  0  0  0  0  0
   25.5741   20.9264   98.0505 N   0  0  0  0  0  0  0  0  0  0  0  0
   25.2632   20.3328   99.2113 C   0  0  0  0  0  0  0  0  0  0  0  0
   26.0761   19.7979  100.2320 C   0  0  0  0  0  0  0  0  0  0  0  0
   27.4643   19.7775  100.1655 N   0  0  0  0  0  0  0  0  0  0  0  0
   25.4708   19.3177  101.3483 N   0  0  0  0  0  0  0  0  0  0  0  0
   24.1344   19.3585  101.4070 C   0  0  0  0  0  0  0  0  0  0  0  0
   23.2577   19.8002  100.4937 N   0  0  0  0  0  0  0  0  0  0  0  0
   23.8936   20.2843   99.3989 C   0  0  0  0  0  0  0  0  0  0  0  0
   23.9308   24.3593  102.5236 N   0  0  0  0  0  0  0  0  0  0  0  0
   22.7738   25.0602  102.9385 C   0  0  0  0  0  0  0  0  0  0  0  0
   21.6516   25.0129  102.4446 O   0  0  0  0  0  0  0  0  0  0  0  0
   22.8959   25.8730  104.0385 N   0  0  0  0  0  0  0  0  0  0  0  0
   24.0085   26.1529  104.7810 C   0  0  0  0  0  0  0  0  0  0  0  0
   23.9507   26.9069  105.7496 O   0  0  0  0  0  0  0  0  0  0  0  0
   25.2203   25.4650  104.3122 C   0  0  0  0  0  0  0  0  0  0  0  0
   26.3216   25.6988  104.9142 N   0  0  0  0  0  0  0  0  0  0  0  0
   27.4630   24.9659  104.5437 C   0  0  0  0  0  0  0  0  0  0  0  0
   28.6175   25.1995  105.2920 C   0  0  0  0  0  0  0  0  0  0  0  0
   29.7944   24.5013  105.0179 C   0  0  0  0  0  0  0  0  0  0  0  0
   31.0305   24.7840  105.8596 C   0  0  0  0  0  0  0  0  0  0  0  0
   29.8193   23.5683  103.9694 C   0  0  0  0  0  0  0  0  0  0  0  0
   31.0795   22.7854  103.6353 C   0  0  0  0  0  0  0  0  0  0  0  0
   28.6658   23.3412  103.2145 C   0  0  0  0  0  0  0  0  0  0  0  0
   27.4728   24.0282  103.4811 C   0  0  0  0  0  0  0  0  0  0  0  0
   26.2493   23.8321  102.7513 N   0  0  0  0  0  0  0  0  0  0  0  0
   25.0638   24.5147  103.1255 C   0  0  0  0  0  0  0  0  0  0  0  0
   26.2208   22.9365  101.5729 C   0  0  0  0  0  0  0  0  0  0  0  0
   26.5487   23.6002  100.2014 C   0  0  2  0  0  0  0  0  0  0  0  0
   27.7954   24.2649  100.2578 O   0  0  0  0  0  0  0  0  0  0  0  0
   25.4535   24.5389   99.6101 C   0  0  2  0  0  0  0  0  0  0  0  0
   24.1958   23.8931   99.6811 O   0  0  0  0  0  0  0  0  0  0  0  0
   25.6663   24.9814   98.1319 C   0  0  2  0  0  0  0  0  0  0  0  0
   26.9245   25.6075   97.9685 O   0  0  0  0  0  0  0  0  0  0  0  0
   24.5813   25.9619   97.6391 C   0  0  0  0  0  0  0  0  0  0  0  0
   24.7998   26.3753   96.2961 O   0  0  0  0  0  0  0  0  0  0  0  0
   23.5592   26.0844   95.1257 P   0  0  1  0  0  0  0  0  0  0  0  0
   22.2026   26.2974   95.7467 O   0  0  0  0  0  0  0  0  0  0  0  0
   23.9739   26.7743   93.8535 O   0  0  0  0  0  0  0  0  0  0  0  0
   23.8150   24.4096   94.9764 O   0  0  0  0  0  0  0  0  0  0  0  0
  1  2  2  0
  1  3  1  6
  1  4  1  0
  1 53  1  0
  4  5  1  0
  6  5  1  6
  6  7  1  0
  6  8  1  0
  7 12  1  0
  8  9  1  1
  8 10  1  0
 10 11  1  6
 10 12  1  0
 12 13  1  6
 13 14  1  0
 13 22  1  0
 14 15  2  0
 15 16  1  0
 16 17  1  0
 16 22  2  0
 17 18  1  0
 17 19  2  0
 19 20  1  0
 20 21  2  0
 21 22  1  0
 23 24  1  0
 23 40  2  0
 24 25  2  0
 24 26  1  0
 26 27  1  0
 27 28  2  0
 27 29  1  0
 29 30  2  0
 29 40  1  0
 30 31  1  0
 31 32  1  0
 31 38  2  0
 32 33  2  0
 33 34  1  0
 33 35  1  0
 35 36  1  0
 35 37  2  0
 37 38  1  0
 38 39  1  0
 39 40  1  0
 39 41  1  0
 41 42  1  0
 42 43  1  1
 42 44  1  0
 44 45  1  6
 44 46  1  0
 46 47  1  1
 46 48  1  0
 48 49  1  0
 49 50  1  0
 50 51  2  0
 50 52  1  6
 50 53  1  0
M  CHG  2   3  -1  52  -1
M  END
$$$$
