7RH3_ligand
     RDKit          3D

 34 36  0  0  1  0  0  0  0  0999 V2000
   10.5441   -9.0685    1.9979 C   0  0  0  0  0  0  0  0  0  0  0  0
   15.2372   -8.4690   -1.3912 C   0  0  0  0  0  0  0  0  0  0  0  0
   21.9386   -5.4620   -0.9737 O   0  0  0  0  0  0  0  0  0  0  0  0
   20.6750   -5.5998   -0.3671 C   0  0  0  0  0  0  0  0  0  0  0  0
   21.8742   -9.9362   -2.5427 C   0  0  0  0  0  0  0  0  0  0  0  0
   18.3973   -6.7621   -0.5589 C   0  0  2  0  0  0  0  0  0  0  0  0
   17.6059   -7.8314   -1.3356 C   0  0  1  0  0  0  0  0  0  0  0  0
   19.8412   -8.8356   -1.9909 C   0  0  1  0  0  0  0  0  0  0  0  0
   18.4001   -9.1540   -1.5173 C   0  0  1  0  0  0  0  0  0  0  0  0
   19.8257   -6.6359   -1.1279 C   0  0  2  0  0  0  0  0  0  0  0  0
   20.4463   -7.9282   -1.0999 O   0  0  0  0  0  0  0  0  0  0  0  0
   20.5557  -10.0340   -2.0234 O   0  0  0  0  0  0  0  0  0  0  0  0
   18.3790   -9.9849   -0.3432 O   0  0  0  0  0  0  0  0  0  0  0  0
   18.3087  -11.3455   -0.4474 C   0  0  0  0  0  0  0  0  0  0  0  0
   16.3230   -8.0036   -0.7281 O   0  0  0  0  0  0  0  0  0  0  0  0
   18.4154   -7.0213    0.8357 O   0  0  0  0  0  0  0  0  0  0  0  0
   15.2397   -8.7496   -2.5929 O   0  0  0  0  0  0  0  0  0  0  0  0
   18.2092  -11.9524   -1.5172 O   0  0  0  0  0  0  0  0  0  0  0  0
   18.5906  -12.0374    0.8455 C   0  0  0  0  0  0  0  0  0  0  0  0
   14.0320   -8.5990   -0.5042 C   0  0  0  0  0  0  0  0  0  0  0  0
   12.8049   -8.9815   -1.0624 C   0  0  0  0  0  0  0  0  0  0  0  0
   14.1032   -8.3629    0.8796 C   0  0  0  0  0  0  0  0  0  0  0  0
   11.6783   -9.1323   -0.2571 C   0  0  0  0  0  0  0  0  0  0  0  0
   12.9820   -8.5339    1.6843 C   0  0  0  0  0  0  0  0  0  0  0  0
   11.7680   -8.9132    1.1166 C   0  0  0  0  0  0  0  0  0  0  0  0
   19.6927  -12.9062    0.8232 C   0  0  0  0  0  0  0  0  0  0  0  0
   17.8311  -11.8997    2.0414 C   0  0  0  0  0  0  0  0  0  0  0  0
   20.0746  -13.6133    1.9568 C   0  0  0  0  0  0  0  0  0  0  0  0
   18.2504  -12.6221    3.1743 C   0  0  0  0  0  0  0  0  0  0  0  0
   16.5958  -11.0725    2.1585 N   0  0  0  0  0  0  0  0  0  0  0  0
   19.3534  -13.4701    3.1336 C   0  0  0  0  0  0  0  0  0  0  0  0
   19.8183  -14.3571    4.5358 Cl  0  0  0  0  0  0  0  0  0  0  0  0
   16.0244  -10.6859    1.1476 O   0  0  0  0  0  0  0  0  0  0  0  0
   16.1510  -10.8391    3.2792 O   0  0  0  0  0  0  0  0  0  0  0  0
  1 25  1  0
  2 15  1  0
  2 17  2  0
  2 20  1  0
  3  4  1  0
 10  4  1  1
  5 12  1  0
  6  7  1  0
  6 10  1  0
  6 16  1  1
  7  9  1  0
  7 15  1  1
  8  9  1  0
  8 11  1  0
  8 12  1  1
  9 13  1  1
 10 11  1  0
 13 14  1  0
 14 18  2  0
 14 19  1  0
 19 26  2  0
 19 27  1  0
 20 21  2  0
 20 22  1  0
 21 23  1  0
 22 24  2  0
 23 25  2  0
 24 25  1  0
 26 28  1  0
 27 29  2  0
 27 30  1  0
 28 31  2  0
 29 31  1  0
 30 33  2  0
 30 34  1  0
 31 32  1  0
M  CHG  2  30   1  34  -1
M  END
$$$$
