6M2B_ligand
     RDKit          3D

 25 27  0  0  1  0  0  0  0  0999 V2000
   33.7133  -21.6504   21.8886 C   0  0  0  0  0  0  0  0  0  0  0  0
   32.6924  -22.0885   21.0614 C   0  0  0  0  0  0  0  0  0  0  0  0
   31.4304  -22.3382   21.5841 C   0  0  0  0  0  0  0  0  0  0  0  0
   31.1485  -22.1564   22.9493 C   0  0  0  0  0  0  0  0  0  0  0  0
   32.1918  -21.6820   23.8029 C   0  0  0  0  0  0  0  0  0  0  0  0
   33.4622  -21.4475   23.2390 C   0  0  0  0  0  0  0  0  0  0  0  0
   32.0201  -21.3740   25.2737 C   0  0  0  0  0  0  0  0  0  0  0  0
   29.7762  -22.4803   23.3926 C   0  0  0  0  0  0  0  0  0  0  0  0
   26.3342  -22.4076   22.2296 C   0  0  0  0  0  0  0  0  0  0  0  0
   31.3696  -22.1602   25.9971 O   0  0  0  0  0  0  0  0  0  0  0  0
   32.5606  -20.3402   25.7259 O   0  0  0  0  0  0  0  0  0  0  0  0
   28.7324  -22.1975   22.7151 N   0  0  0  0  0  0  0  0  0  0  0  0
   27.3921  -22.5246   23.1259 N   0  0  0  0  0  0  0  0  0  0  0  0
   25.1700  -22.9992   22.3645 N   0  0  0  0  0  0  0  0  0  0  0  0
   24.3725  -22.8435   21.3230 C   0  0  0  0  0  0  0  0  0  0  0  0
   24.8966  -22.0350   20.3125 C   0  0  0  0  0  0  0  0  0  0  0  0
   26.4973  -21.5149   20.7434 S   0  0  0  0  0  0  0  0  0  0  0  0
   23.0645  -23.5615   21.2860 C   0  0  0  0  0  0  0  0  0  0  0  0
   22.1295  -23.5475   22.3382 C   0  0  0  0  0  0  0  0  0  0  0  0
   20.9440  -24.2723   22.2326 C   0  0  0  0  0  0  0  0  0  0  0  0
   20.6833  -25.0256   21.0945 C   0  0  0  0  0  0  0  0  0  0  0  0
   21.6035  -25.0529   20.0483 C   0  0  0  0  0  0  0  0  0  0  0  0
   22.7819  -24.3151   20.1399 C   0  0  0  0  0  0  0  0  0  0  0  0
   22.3812  -22.6401   23.7838 Cl  0  0  0  0  0  0  0  0  0  0  0  0
   27.1854  -23.2472   24.3952 C   0  0  0  0  0  0  0  0  0  0  0  0
  1  2  2  0
  1  6  1  0
  2  3  1  0
  3  4  2  0
  4  5  1  0
  4  8  1  0
  5  6  2  0
  5  7  1  0
  7 10  1  0
  7 11  2  0
  8 12  2  0
  9 13  1  0
  9 14  2  0
  9 17  1  0
 12 13  1  0
 13 25  1  0
 14 15  1  0
 15 16  2  0
 15 18  1  0
 16 17  1  0
 18 19  2  0
 18 23  1  0
 19 20  1  0
 19 24  1  0
 20 21  2  0
 21 22  1  0
 22 23  2  0
M  CHG  1  10  -1
M  END
$$$$
