8C3N_ligand
     RDKit          3D

 27 29  0  0  1  0  0  0  0  0999 V2000
   18.8377  -38.3951  -47.6758 P   0  0  0  0  0  0  0  0  0  0  0  0
   17.3169  -38.1745  -47.7122 O   0  0  0  0  0  0  0  0  0  0  0  0
   19.2301  -39.7968  -47.1881 O   0  0  0  0  0  0  0  0  0  0  0  0
   19.5984  -37.2963  -46.9138 O   0  0  0  0  0  0  0  0  0  0  0  0
   20.4971  -37.2640  -50.0731 P   0  0  1  0  0  0  0  0  0  0  0  0
   20.0192  -35.8553  -49.8287 O   0  0  0  0  0  0  0  0  0  0  0  0
   21.8801  -37.7497  -49.6940 O   0  0  0  0  0  0  0  0  0  0  0  0
   19.3794  -38.2996  -49.3228 O   0  0  0  0  0  0  0  0  0  0  0  0
   20.1836  -37.6543  -51.7236 O   0  0  0  0  0  0  0  0  0  0  0  0
   20.9592  -38.6825  -52.3154 C   0  0  0  0  0  0  0  0  0  0  0  0
   20.6861  -38.6988  -53.8267 C   0  0  1  0  0  0  0  0  0  0  0  0
   21.2153  -37.5055  -54.4019 O   0  0  0  0  0  0  0  0  0  0  0  0
   21.3690  -39.8456  -54.5900 C   0  0  1  0  0  0  0  0  0  0  0  0
   20.5300  -40.4337  -55.5699 O   0  0  0  0  0  0  0  0  0  0  0  0
   22.6305  -39.2134  -55.1688 C   0  0  1  0  0  0  0  0  0  0  0  0
   23.1440  -39.7677  -56.3710 O   0  0  0  0  0  0  0  0  0  0  0  0
   22.1555  -37.7819  -55.3954 C   0  0  2  0  0  0  0  0  0  0  0  0
   23.2676  -36.7557  -55.4013 N   0  0  0  0  0  0  0  0  0  0  0  0
   24.1990  -36.5552  -54.4477 C   0  0  0  0  0  0  0  0  0  0  0  0
   25.1609  -35.7455  -54.8093 N   0  0  0  0  0  0  0  0  0  0  0  0
   24.8603  -35.4246  -56.0773 C   0  0  0  0  0  0  0  0  0  0  0  0
   25.5440  -34.6393  -57.0341 C   0  0  0  0  0  0  0  0  0  0  0  0
   26.7777  -34.0474  -56.7867 N   0  0  0  0  0  0  0  0  0  0  0  0
   24.9730  -34.4666  -58.2567 N   0  0  0  0  0  0  0  0  0  0  0  0
   23.8111  -35.0876  -58.4968 C   0  0  0  0  0  0  0  0  0  0  0  0
   23.0981  -35.8928  -57.6948 N   0  0  0  0  0  0  0  0  0  0  0  0
   23.6751  -36.0149  -56.4744 C   0  0  0  0  0  0  0  0  0  0  0  0
  1  2  2  0
  1  3  1  0
  1  4  1  0
  1  8  1  0
  5  6  2  0
  5  7  1  1
  5  8  1  0
  5  9  1  0
  9 10  1  0
 11 10  1  1
 11 12  1  0
 11 13  1  0
 12 17  1  0
 13 14  1  6
 13 15  1  0
 15 16  1  6
 15 17  1  0
 17 18  1  1
 18 19  1  0
 18 27  1  0
 19 20  2  0
 20 21  1  0
 21 22  1  0
 21 27  2  0
 22 23  1  0
 22 24  2  0
 24 25  1  0
 25 26  2  0
 26 27  1  0
M  CHG  3   3  -1   4  -1   7  -1
M  END
$$$$
