7E2S_ligand
     RDKit          3D

 43 46  0  0  1  0  0  0  0  0999 V2000
   -8.6568  -21.8733  -21.2524 C   0  0  0  0  0  0  0  0  0  0  0  0
   -8.0963  -24.2524  -20.9497 N   0  0  0  0  0  0  0  0  0  0  0  0
   -8.9385  -23.2926  -21.4402 C   0  0  0  0  0  0  0  0  0  0  0  0
   -9.9506  -23.9565  -22.1325 C   0  0  0  0  0  0  0  0  0  0  0  0
   -9.7132  -25.3449  -22.0030 C   0  0  0  0  0  0  0  0  0  0  0  0
   -8.5247  -25.5041  -21.2923 C   0  0  0  0  0  0  0  0  0  0  0  0
  -10.5330  -26.4560  -22.6255 C   0  0  0  0  0  0  0  0  0  0  0  0
  -11.0983  -23.3115  -22.8864 C   0  0  0  0  0  0  0  0  0  0  0  0
  -10.7623  -23.1400  -24.3898 C   0  0  0  0  0  0  0  0  0  0  0  0
  -11.9061  -22.5820  -25.2699 C   0  0  0  0  0  0  0  0  0  0  0  0
  -11.6098  -22.3417  -26.4622 O   0  0  0  0  0  0  0  0  0  0  0  0
  -13.0497  -22.4113  -24.7882 O   0  0  0  0  0  0  0  0  0  0  0  0
   -7.8191  -26.7028  -20.8653 C   0  0  0  0  0  0  0  0  0  0  0  0
   -5.5730  -25.9587  -20.4910 N   0  0  0  0  0  0  0  0  0  0  0  0
   -6.5322  -26.8958  -20.5038 C   0  0  0  0  0  0  0  0  0  0  0  0
   -5.9046  -28.1217  -20.0769 C   0  0  0  0  0  0  0  0  0  0  0  0
   -4.5946  -27.8645  -19.9110 C   0  0  0  0  0  0  0  0  0  0  0  0
   -4.3795  -26.4483  -20.1455 C   0  0  0  0  0  0  0  0  0  0  0  0
   -6.5757  -29.4805  -19.9560 C   0  0  0  0  0  0  0  0  0  0  0  0
   -3.3508  -25.7820  -20.0491 O   0  0  0  0  0  0  0  0  0  0  0  0
   -3.5112  -28.7785  -19.5397 C   0  0  0  0  0  0  0  0  0  0  0  0
   -2.1883  -28.5841  -19.6862 C   0  0  0  0  0  0  0  0  0  0  0  0
   -5.2462  -23.5588  -17.8498 N   0  0  0  0  0  0  0  0  0  0  0  0
   -4.7100  -24.6009  -17.2187 C   0  0  0  0  0  0  0  0  0  0  0  0
   -3.3430  -24.2303  -16.9534 C   0  0  0  0  0  0  0  0  0  0  0  0
   -3.1529  -22.9658  -17.3790 C   0  0  0  0  0  0  0  0  0  0  0  0
   -4.3916  -22.5311  -17.9951 C   0  0  0  0  0  0  0  0  0  0  0  0
   -2.3935  -25.2132  -16.2921 C   0  0  0  0  0  0  0  0  0  0  0  0
   -5.2893  -25.6537  -16.9540 O   0  0  0  0  0  0  0  0  0  0  0  0
   -1.8922  -22.2420  -17.2814 C   0  0  0  0  0  0  0  0  0  0  0  0
   -1.7839  -20.9213  -17.0749 C   0  0  0  0  0  0  0  0  0  0  0  0
   -4.6814  -21.3748  -18.6437 C   0  0  0  0  0  0  0  0  0  0  0  0
   -6.7387  -21.9149  -19.8038 N   0  0  0  0  0  0  0  0  0  0  0  0
   -5.8914  -21.0766  -19.3726 C   0  0  0  0  0  0  0  0  0  0  0  0
   -6.2422  -19.7432  -19.7820 C   0  0  0  0  0  0  0  0  0  0  0  0
   -7.3583  -19.8780  -20.5247 C   0  0  0  0  0  0  0  0  0  0  0  0
   -7.6589  -21.2880  -20.5532 C   0  0  0  0  0  0  0  0  0  0  0  0
   -5.4566  -18.4883  -19.4412 C   0  0  0  0  0  0  0  0  0  0  0  0
   -8.1347  -18.7559  -21.2082 C   0  0  0  0  0  0  0  0  0  0  0  0
   -7.5419  -18.2931  -22.5629 C   0  0  0  0  0  0  0  0  0  0  0  0
   -7.6783  -19.3074  -23.7179 C   0  0  0  0  0  0  0  0  0  0  0  0
   -6.6678  -19.5094  -24.4261 O   0  0  0  0  0  0  0  0  0  0  0  0
   -8.7899  -19.8417  -23.9249 O   0  0  0  0  0  0  0  0  0  0  0  0
  1  3  1  0
  1 37  2  0
  2  3  1  0
  2  6  1  0
  3  4  2  0
  4  5  1  0
  4  8  1  0
  5  6  2  0
  5  7  1  0
  6 13  1  0
  8  9  1  0
  9 10  1  0
 10 11  2  0
 10 12  1  0
 13 15  2  0
 14 15  1  0
 14 18  1  0
 15 16  1  0
 16 17  2  0
 16 19  1  0
 17 18  1  0
 17 21  1  0
 18 20  2  0
 21 22  2  0
 23 24  1  0
 23 27  1  0
 24 25  1  0
 24 29  2  0
 25 26  2  0
 25 28  1  0
 26 27  1  0
 26 30  1  0
 27 32  2  0
 30 31  2  0
 32 34  1  0
 33 34  2  0
 33 37  1  0
 34 35  1  0
 35 36  2  0
 35 38  1  0
 36 37  1  0
 36 39  1  0
 39 40  1  0
 40 41  1  0
 41 42  2  0
 41 43  1  0
M  CHG  2  12  -1  43  -1
M  END
$$$$
